* bit_cell_array


.subckt rowdecoder 2 4 5 7 8 10 11 12 13 14 15 16 17 
M1 10 2 7 nmos W=2.1e-08 L=1.5e-08 NFIN=2 ADEO=2.835e-16 ASEO=2.835e-16 PDEO=5.85e-08 
+    PSEO=5.85e-08 $X=0.9305 $Y=2.2880 
M2 11 2 7 nmos W=2.1e-08 L=1.5e-08 NFIN=2 ADEO=2.835e-16 ASEO=2.835e-16 PDEO=5.85e-08 
+    PSEO=5.85e-08 $X=0.9305 $Y=2.0010 
M3 12 3 7 nmos W=2.1e-08 L=1.5e-08 NFIN=2 ADEO=2.835e-16 ASEO=2.835e-16 PDEO=5.85e-08 
+    PSEO=5.85e-08 $X=0.9305 $Y=1.7135 
M4 13 3 7 nmos W=2.1e-08 L=1.5e-08 NFIN=2 ADEO=2.835e-16 ASEO=2.835e-16 PDEO=5.85e-08 
+    PSEO=5.85e-08 $X=0.9305 $Y=1.4265 
M5 14 2 7 nmos W=2.1e-08 L=1.5e-08 NFIN=2 ADEO=2.835e-16 ASEO=2.835e-16 PDEO=5.85e-08 
+    PSEO=5.85e-08 $X=0.9305 $Y=1.1395 
M6 15 2 7 nmos W=2.1e-08 L=1.5e-08 NFIN=2 ADEO=2.835e-16 ASEO=2.835e-16 PDEO=5.85e-08 
+    PSEO=5.85e-08 $X=0.9305 $Y=0.8525 
M7 16 3 7 nmos W=2.1e-08 L=1.5e-08 NFIN=2 ADEO=2.835e-16 ASEO=2.835e-16 PDEO=5.85e-08 
+    PSEO=5.85e-08 $X=0.9305 $Y=0.5655 
M8 17 3 7 nmos W=2.1e-08 L=1.5e-08 NFIN=2 ADEO=2.835e-16 ASEO=2.835e-16 PDEO=5.85e-08 
+    PSEO=5.85e-08 $X=0.9305 $Y=0.2785 
M9 10 8 7 nmos W=2.1e-08 L=1.5e-08 NFIN=2 ADEO=2.835e-16 ASEO=2.835e-16 PDEO=5.85e-08 
+    PSEO=5.85e-08 $X=0.8465 $Y=2.3375 
M10 11 9 7 nmos W=2.1e-08 L=1.5e-08 NFIN=2 ADEO=2.835e-16 ASEO=2.835e-16 PDEO=5.85e-08 
+    PSEO=5.85e-08 $X=0.8465 $Y=2.0505 
M11 12 8 7 nmos W=2.1e-08 L=1.5e-08 NFIN=2 ADEO=2.835e-16 ASEO=2.835e-16 PDEO=5.85e-08 
+    PSEO=5.85e-08 $X=0.8465 $Y=1.7630 
M12 13 9 7 nmos W=2.1e-08 L=1.5e-08 NFIN=2 ADEO=2.835e-16 ASEO=2.835e-16 PDEO=5.85e-08 
+    PSEO=5.85e-08 $X=0.8465 $Y=1.4760 
M13 14 8 7 nmos W=2.1e-08 L=1.5e-08 NFIN=2 ADEO=2.835e-16 ASEO=2.835e-16 PDEO=5.85e-08 
+    PSEO=5.85e-08 $X=0.8465 $Y=1.1890 
M14 15 9 7 nmos W=2.1e-08 L=1.5e-08 NFIN=2 ADEO=2.835e-16 ASEO=2.835e-16 PDEO=5.85e-08 
+    PSEO=5.85e-08 $X=0.8465 $Y=0.9020 
M15 16 8 7 nmos W=2.1e-08 L=1.5e-08 NFIN=2 ADEO=2.835e-16 ASEO=2.835e-16 PDEO=5.85e-08 
+    PSEO=5.85e-08 $X=0.8465 $Y=0.6150 
M16 17 9 7 nmos W=2.1e-08 L=1.5e-08 NFIN=2 ADEO=2.835e-16 ASEO=2.835e-16 PDEO=5.85e-08 
+    PSEO=5.85e-08 $X=0.8465 $Y=0.3280 
M17 10 5 7 nmos W=2.1e-08 L=1.5e-08 NFIN=2 ADEO=2.835e-16 ASEO=2.835e-16 PDEO=5.85e-08 
+    PSEO=5.85e-08 $X=0.7625 $Y=2.3375 
M18 11 5 7 nmos W=2.1e-08 L=1.5e-08 NFIN=2 ADEO=2.835e-16 ASEO=2.835e-16 PDEO=5.85e-08 
+    PSEO=5.85e-08 $X=0.7625 $Y=2.0505 
M19 12 5 7 nmos W=2.1e-08 L=1.5e-08 NFIN=2 ADEO=2.835e-16 ASEO=2.835e-16 PDEO=5.85e-08 
+    PSEO=5.85e-08 $X=0.7625 $Y=1.7630 
M20 13 5 7 nmos W=2.1e-08 L=1.5e-08 NFIN=2 ADEO=2.835e-16 ASEO=2.835e-16 PDEO=5.85e-08 
+    PSEO=5.85e-08 $X=0.7625 $Y=1.4760 
M21 14 6 7 nmos W=2.1e-08 L=1.5e-08 NFIN=2 ADEO=2.835e-16 ASEO=2.835e-16 PDEO=5.85e-08 
+    PSEO=5.85e-08 $X=0.7625 $Y=1.1890 
M22 15 6 7 nmos W=2.1e-08 L=1.5e-08 NFIN=2 ADEO=2.835e-16 ASEO=2.835e-16 PDEO=5.85e-08 
+    PSEO=5.85e-08 $X=0.7625 $Y=0.9020 
M23 16 6 7 nmos W=2.1e-08 L=1.5e-08 NFIN=2 ADEO=2.835e-16 ASEO=2.835e-16 PDEO=5.85e-08 
+    PSEO=5.85e-08 $X=0.7625 $Y=0.6150 
M24 17 6 7 nmos W=2.1e-08 L=1.5e-08 NFIN=2 ADEO=2.835e-16 ASEO=2.835e-16 PDEO=5.85e-08 
+    PSEO=5.85e-08 $X=0.7625 $Y=0.3280 
M25 9 8 7 nmos W=2.1e-08 L=1.5e-08 NFIN=2 ADEO=2.835e-16 ASEO=2.835e-16 PDEO=5.85e-08 
+    PSEO=5.85e-08 $X=0.5480 $Y=0.1280 
M26 3 2 7 nmos W=2.1e-08 L=1.5e-08 NFIN=2 ADEO=2.835e-16 ASEO=2.835e-16 PDEO=5.85e-08 
+    PSEO=5.85e-08 $X=0.3275 $Y=0.1280 
M27 6 5 7 nmos W=2.1e-08 L=1.5e-08 NFIN=2 ADEO=2.835e-16 ASEO=2.835e-16 PDEO=5.85e-08 
+    PSEO=5.85e-08 $X=0.1150 $Y=0.1280 
M28 10 8 21 pmos W=2.1e-08 L=1.5e-08 NFIN=4 ADEO=5.67e-16 ASEO=1.134e-15 PDEO=1.17e-07 
+    PSEO=2.34e-07 $X=0.8465 $Y=2.3375 
M29 11 9 23 pmos W=2.1e-08 L=1.5e-08 NFIN=4 ADEO=5.67e-16 ASEO=1.134e-15 PDEO=1.17e-07 
+    PSEO=2.34e-07 $X=0.8465 $Y=2.0505 
M30 12 8 25 pmos W=2.1e-08 L=1.5e-08 NFIN=4 ADEO=5.67e-16 ASEO=1.134e-15 PDEO=1.17e-07 
+    PSEO=2.34e-07 $X=0.8465 $Y=1.7630 
M31 13 9 27 pmos W=2.1e-08 L=1.5e-08 NFIN=4 ADEO=5.67e-16 ASEO=1.134e-15 PDEO=1.17e-07 
+    PSEO=2.34e-07 $X=0.8465 $Y=1.4760 
M32 14 8 29 pmos W=2.1e-08 L=1.5e-08 NFIN=4 ADEO=5.67e-16 ASEO=1.134e-15 PDEO=1.17e-07 
+    PSEO=2.34e-07 $X=0.8465 $Y=1.1890 
M33 15 9 31 pmos W=2.1e-08 L=1.5e-08 NFIN=4 ADEO=5.67e-16 ASEO=1.134e-15 PDEO=1.17e-07 
+    PSEO=2.34e-07 $X=0.8465 $Y=0.9020 
M34 16 8 33 pmos W=2.1e-08 L=1.5e-08 NFIN=4 ADEO=5.67e-16 ASEO=1.134e-15 PDEO=1.17e-07 
+    PSEO=2.34e-07 $X=0.8465 $Y=0.6150 
M35 17 9 35 pmos W=2.1e-08 L=1.5e-08 NFIN=4 ADEO=5.67e-16 ASEO=1.134e-15 PDEO=1.17e-07 
+    PSEO=2.34e-07 $X=0.8465 $Y=0.3280 
M36 21 2 20 pmos W=2.1e-08 L=1.5e-08 NFIN=4 ADEO=1.134e-15 ASEO=1.134e-15 PDEO=2.34e-07 
+    PSEO=2.34e-07 $X=0.8045 $Y=2.3625 
M37 23 2 22 pmos W=2.1e-08 L=1.5e-08 NFIN=4 ADEO=1.134e-15 ASEO=1.134e-15 PDEO=2.34e-07 
+    PSEO=2.34e-07 $X=0.8045 $Y=2.0755 
M38 25 3 24 pmos W=2.1e-08 L=1.5e-08 NFIN=4 ADEO=1.134e-15 ASEO=1.134e-15 PDEO=2.34e-07 
+    PSEO=2.34e-07 $X=0.8045 $Y=1.7880 
M39 27 3 26 pmos W=2.1e-08 L=1.5e-08 NFIN=4 ADEO=1.134e-15 ASEO=1.134e-15 PDEO=2.34e-07 
+    PSEO=2.34e-07 $X=0.8045 $Y=1.5010 
M40 29 2 28 pmos W=2.1e-08 L=1.5e-08 NFIN=4 ADEO=1.134e-15 ASEO=1.134e-15 PDEO=2.34e-07 
+    PSEO=2.34e-07 $X=0.8045 $Y=1.2140 
M41 31 2 30 pmos W=2.1e-08 L=1.5e-08 NFIN=4 ADEO=1.134e-15 ASEO=1.134e-15 PDEO=2.34e-07 
+    PSEO=2.34e-07 $X=0.8045 $Y=0.9270 
M42 33 3 32 pmos W=2.1e-08 L=1.5e-08 NFIN=4 ADEO=1.134e-15 ASEO=1.134e-15 PDEO=2.34e-07 
+    PSEO=2.34e-07 $X=0.8045 $Y=0.6400 
M43 35 3 34 pmos W=2.1e-08 L=1.5e-08 NFIN=4 ADEO=1.134e-15 ASEO=1.134e-15 PDEO=2.34e-07 
+    PSEO=2.34e-07 $X=0.8045 $Y=0.3530 
M44 20 5 4 pmos W=2.1e-08 L=1.5e-08 NFIN=4 ADEO=1.134e-15 ASEO=5.67e-16 PDEO=2.34e-07 
+    PSEO=1.17e-07 $X=0.7625 $Y=2.3375 
M45 22 5 4 pmos W=2.1e-08 L=1.5e-08 NFIN=4 ADEO=1.134e-15 ASEO=5.67e-16 PDEO=2.34e-07 
+    PSEO=1.17e-07 $X=0.7625 $Y=2.0505 
M46 24 5 4 pmos W=2.1e-08 L=1.5e-08 NFIN=4 ADEO=1.134e-15 ASEO=5.67e-16 PDEO=2.34e-07 
+    PSEO=1.17e-07 $X=0.7625 $Y=1.7630 
M47 26 5 4 pmos W=2.1e-08 L=1.5e-08 NFIN=4 ADEO=1.134e-15 ASEO=5.67e-16 PDEO=2.34e-07 
+    PSEO=1.17e-07 $X=0.7625 $Y=1.4760 
M48 28 6 4 pmos W=2.1e-08 L=1.5e-08 NFIN=4 ADEO=1.134e-15 ASEO=5.67e-16 PDEO=2.34e-07 
+    PSEO=1.17e-07 $X=0.7625 $Y=1.1890 
M49 30 6 4 pmos W=2.1e-08 L=1.5e-08 NFIN=4 ADEO=1.134e-15 ASEO=5.67e-16 PDEO=2.34e-07 
+    PSEO=1.17e-07 $X=0.7625 $Y=0.9020 
M50 32 6 4 pmos W=2.1e-08 L=1.5e-08 NFIN=4 ADEO=1.134e-15 ASEO=5.67e-16 PDEO=2.34e-07 
+    PSEO=1.17e-07 $X=0.7625 $Y=0.6150 
M51 34 6 4 pmos W=2.1e-08 L=1.5e-08 NFIN=4 ADEO=1.134e-15 ASEO=5.67e-16 PDEO=2.34e-07 
+    PSEO=1.17e-07 $X=0.7625 $Y=0.3280 
M52 9 8 4 pmos W=2.1e-08 L=1.5e-08 NFIN=4 ADEO=5.67e-16 ASEO=5.67e-16 PDEO=1.17e-07 
+    PSEO=1.17e-07 $X=0.5480 $Y=0.1280 
M53 3 2 4 pmos W=2.1e-08 L=1.5e-08 NFIN=4 ADEO=5.67e-16 ASEO=5.67e-16 PDEO=1.17e-07 
+    PSEO=1.17e-07 $X=0.3275 $Y=0.1280 
M54 6 5 4 pmos W=2.1e-08 L=1.5e-08 NFIN=4 ADEO=5.67e-16 ASEO=5.67e-16 PDEO=1.17e-07 
+    PSEO=1.17e-07 $X=0.1150 $Y=0.1280 
.ends rowdecoder

.subckt bit_conditioning 3 4 5 6 7 
M1 2 5 7 nmos W=2.1e-08 L=1.5e-08 NFIN=2 ADEO=2.835e-16 ASEO=2.835e-16 PDEO=5.85e-08 
+    PSEO=5.85e-08 $X=0.7500 $Y=0.4595 
M2 2 5 6 pmos W=2.1e-08 L=1.5e-08 NFIN=4 ADEO=5.67e-16 ASEO=5.67e-16 PDEO=1.17e-07 
+    PSEO=1.17e-07 $X=0.7500 $Y=0.4595 
M3 4 2 6 pmos W=2.1e-08 L=1.5e-08 NFIN=2 ADEO=2.835e-16 ASEO=2.835e-16 PDEO=5.85e-08 
+    PSEO=5.85e-08 $X=0.6660 $Y=0.4595 
M4 3 2 6 pmos W=2.1e-08 L=1.5e-08 NFIN=2 ADEO=2.835e-16 ASEO=2.835e-16 PDEO=5.85e-08 
+    PSEO=5.85e-08 $X=0.5820 $Y=0.4595 
.ends bit_conditioning

.subckt inverter_write_driver 2 3 7 8 
*.CELL_INFO DEVICE_LEVELED 1-pmos 1-nmos
M1 2 3 7 nmos W=2.1e-08 L=1.5e-08 NFIN=2 ADEO=2.835e-16 ASEO=2.835e-16 PDEO=5.85e-08 
+    PSEO=5.85e-08 $X=0.0075 $Y=0.0300 
M2 2 3 8 pmos W=2.1e-08 L=1.5e-08 NFIN=2 ADEO=2.835e-16 ASEO=2.835e-16 PDEO=5.85e-08 
+    PSEO=5.85e-08 $X=0.0075 $Y=0.0300 
.ends inverter_write_driver

.subckt and_2 3 5 6 
*.CELL_INFO DEVICE_LEVELED 1-pmos 1-nmos
M1 5 3 6 nmos W=2.1e-08 L=1.5e-08 NFIN=2 ADEO=2.835e-16 ASEO=2.835e-16 PDEO=5.85e-08 
+    PSEO=5.85e-08 $X=0.6125 $Y=0.3135 
.ends and_2

.subckt VCELLR2 2 3 4 5 6 7 8 9 10 11 
X880FE34C56 2 3 4 8 9 bit_conditioning $T=0.0000 0.0000 0 0 
X880FE34C57 5 6 7 10 11 bit_conditioning $T=0.2520 0.0000 0 0 
.ends VCELLR2

.subckt Write_Driver 3 4 6 7 18 19 
M1 18 9 2 nmos W=2.1e-08 L=1.5e-08 NFIN=2 ADEO=2.835e-16 ASEO=2.835e-16 PDEO=5.85e-08 
+    PSEO=5.85e-08 $X=0.3870 $Y=0.0537 
M2 5 6 18 nmos W=2.1e-08 L=1.5e-08 NFIN=2 ADEO=2.835e-16 ASEO=2.835e-16 PDEO=5.85e-08 
+    PSEO=5.85e-08 $X=0.3030 $Y=0.0607 
M3 2 8 4 nmos W=2.1e-08 L=1.5e-08 NFIN=2 ADEO=2.835e-16 ASEO=2.835e-16 PDEO=5.85e-08 
+    PSEO=5.85e-08 $X=0.0510 $Y=0.0660 
M4 5 8 3 nmos W=2.1e-08 L=1.5e-08 NFIN=2 ADEO=2.835e-16 ASEO=2.835e-16 PDEO=5.85e-08 
+    PSEO=5.85e-08 $X=-0.0330 $Y=0.0660 
X880FE34C36 9 6 18 19 inverter_write_driver $T=0.2115 0.0820 0 0 
X880FE34C37 8 7 18 19 inverter_write_driver $T=0.1275 0.0820 0 0 
.ends Write_Driver

.subckt demu_2_4 4 5 6 7 8 9 10 15 
M1 13 4 23 nmos W=2.1e-08 L=1.5e-08 NFIN=4 ADEO=5.67e-16 ASEO=1.134e-15 PDEO=1.17e-07 
+    PSEO=2.34e-07 $X=0.8690 $Y=0.0955 
M2 23 5 6 nmos W=2.1e-08 L=1.5e-08 NFIN=4 ADEO=1.134e-15 ASEO=5.67e-16 PDEO=2.34e-07 
+    PSEO=1.17e-07 $X=0.8270 $Y=0.1442 
M3 12 3 21 nmos W=2.1e-08 L=1.5e-08 NFIN=4 ADEO=5.67e-16 ASEO=1.134e-15 PDEO=1.17e-07 
+    PSEO=2.34e-07 $X=0.6170 $Y=0.0955 
M4 21 5 6 nmos W=2.1e-08 L=1.5e-08 NFIN=4 ADEO=1.134e-15 ASEO=5.67e-16 PDEO=2.34e-07 
+    PSEO=1.17e-07 $X=0.5750 $Y=0.1442 
M5 11 4 19 nmos W=2.1e-08 L=1.5e-08 NFIN=4 ADEO=5.67e-16 ASEO=1.134e-15 PDEO=1.17e-07 
+    PSEO=2.34e-07 $X=0.3650 $Y=0.0955 
M6 19 2 6 nmos W=2.1e-08 L=1.5e-08 NFIN=4 ADEO=1.134e-15 ASEO=5.67e-16 PDEO=2.34e-07 
+    PSEO=1.17e-07 $X=0.3230 $Y=0.1442 
M7 6 5 2 nmos W=2.1e-08 L=1.5e-08 NFIN=2 ADEO=2.835e-16 ASEO=2.835e-16 PDEO=5.85e-08 
+    PSEO=5.85e-08 $X=0.1550 $Y=0.3235 
M8 14 3 24 nmos W=2.1e-08 L=1.5e-08 NFIN=4 ADEO=5.67e-16 ASEO=1.134e-15 PDEO=1.17e-07 
+    PSEO=2.34e-07 $X=0.1130 $Y=0.0955 
M9 6 4 3 nmos W=2.1e-08 L=1.5e-08 NFIN=2 ADEO=2.835e-16 ASEO=2.835e-16 PDEO=5.85e-08 
+    PSEO=5.85e-08 $X=0.0710 $Y=0.3235 
M10 24 2 6 nmos W=2.1e-08 L=1.5e-08 NFIN=4 ADEO=1.134e-15 ASEO=5.67e-16 PDEO=2.34e-07 
+    PSEO=1.17e-07 $X=0.0710 $Y=0.1438 
M11 9 13 15 pmos W=2.1e-08 L=1.5e-08 NFIN=4 ADEO=5.67e-16 ASEO=5.67e-16 PDEO=1.17e-07 
+    PSEO=1.17e-07 $X=0.9950 $Y=0.1660 
M12 13 4 15 pmos W=2.1e-08 L=1.5e-08 NFIN=4 ADEO=5.67e-16 ASEO=5.67e-16 PDEO=1.17e-07 
+    PSEO=1.17e-07 $X=0.9110 $Y=0.1913 
M13 13 5 15 pmos W=2.1e-08 L=1.5e-08 NFIN=4 ADEO=5.67e-16 ASEO=5.67e-16 PDEO=1.17e-07 
+    PSEO=1.17e-07 $X=0.8270 $Y=0.1442 
M14 8 12 15 pmos W=2.1e-08 L=1.5e-08 NFIN=4 ADEO=5.67e-16 ASEO=5.67e-16 PDEO=1.17e-07 
+    PSEO=1.17e-07 $X=0.7430 $Y=0.1660 
M15 12 3 15 pmos W=2.1e-08 L=1.5e-08 NFIN=4 ADEO=5.67e-16 ASEO=5.67e-16 PDEO=1.17e-07 
+    PSEO=1.17e-07 $X=0.6590 $Y=0.1913 
M16 12 5 15 pmos W=2.1e-08 L=1.5e-08 NFIN=4 ADEO=5.67e-16 ASEO=5.67e-16 PDEO=1.17e-07 
+    PSEO=1.17e-07 $X=0.5750 $Y=0.1442 
M17 7 11 15 pmos W=2.1e-08 L=1.5e-08 NFIN=4 ADEO=5.67e-16 ASEO=5.67e-16 PDEO=1.17e-07 
+    PSEO=1.17e-07 $X=0.4910 $Y=0.1660 
M18 11 4 15 pmos W=2.1e-08 L=1.5e-08 NFIN=4 ADEO=5.67e-16 ASEO=5.67e-16 PDEO=1.17e-07 
+    PSEO=1.17e-07 $X=0.4070 $Y=0.1913 
M19 11 2 15 pmos W=2.1e-08 L=1.5e-08 NFIN=4 ADEO=5.67e-16 ASEO=5.67e-16 PDEO=1.17e-07 
+    PSEO=1.17e-07 $X=0.3230 $Y=0.1442 
M20 10 14 15 pmos W=2.1e-08 L=1.5e-08 NFIN=4 ADEO=5.67e-16 ASEO=5.67e-16 PDEO=1.17e-07 
+    PSEO=1.17e-07 $X=0.2390 $Y=0.1660 
M21 15 5 2 pmos W=2.1e-08 L=1.5e-08 NFIN=4 ADEO=5.67e-16 ASEO=5.67e-16 PDEO=1.17e-07 
+    PSEO=1.17e-07 $X=0.1550 $Y=0.3235 
M22 14 3 15 pmos W=2.1e-08 L=1.5e-08 NFIN=4 ADEO=5.67e-16 ASEO=5.67e-16 PDEO=1.17e-07 
+    PSEO=1.17e-07 $X=0.1550 $Y=0.1908 
M23 15 4 3 pmos W=2.1e-08 L=1.5e-08 NFIN=4 ADEO=5.67e-16 ASEO=5.67e-16 PDEO=1.17e-07 
+    PSEO=1.17e-07 $X=0.0710 $Y=0.3235 
M24 14 2 15 pmos W=2.1e-08 L=1.5e-08 NFIN=4 ADEO=5.67e-16 ASEO=5.67e-16 PDEO=1.17e-07 
+    PSEO=1.17e-07 $X=0.0710 $Y=0.1438 
X880FE34C50 11 7 6 and_2 $T=-0.1215 -0.1475 0 0 
X880FE34C51 12 8 6 and_2 $T=0.1305 -0.1475 0 0 
X880FE34C52 13 9 6 and_2 $T=0.3825 -0.1475 0 0 
X880FE34C53 14 10 6 and_2 $T=-0.3735 -0.1475 0 0 
.ends demu_2_4

.subckt column_decoder_new 2 7 8 9 10 11 12 13 14 15 16 17 18 19 20 21 22 23 24 25 
+    26 27 28 29 30 31 32 33 34 35 36 37 38 39 40 41 42 43 44 45 46 47 48 49 
M1 38 6 47 nmos W=2.1e-08 L=1.5e-08 NFIN=2 ADEO=2.835e-16 ASEO=2.835e-16 PDEO=5.85e-08 
+    PSEO=5.85e-08 $X=2.6665 $Y=0.0963 
M2 37 6 46 nmos W=2.1e-08 L=1.5e-08 NFIN=2 ADEO=2.835e-16 ASEO=2.835e-16 PDEO=5.85e-08 
+    PSEO=5.85e-08 $X=2.5825 $Y=0.0963 
M3 36 6 45 nmos W=2.1e-08 L=1.5e-08 NFIN=2 ADEO=2.835e-16 ASEO=2.835e-16 PDEO=5.85e-08 
+    PSEO=5.85e-08 $X=2.4985 $Y=0.0963 
M4 35 6 44 nmos W=2.1e-08 L=1.5e-08 NFIN=2 ADEO=2.835e-16 ASEO=2.835e-16 PDEO=5.85e-08 
+    PSEO=5.85e-08 $X=2.4145 $Y=0.0963 
M5 34 6 43 nmos W=2.1e-08 L=1.5e-08 NFIN=2 ADEO=2.835e-16 ASEO=2.835e-16 PDEO=5.85e-08 
+    PSEO=5.85e-08 $X=2.3305 $Y=0.0963 
M6 33 6 42 nmos W=2.1e-08 L=1.5e-08 NFIN=2 ADEO=2.835e-16 ASEO=2.835e-16 PDEO=5.85e-08 
+    PSEO=5.85e-08 $X=2.2465 $Y=0.0963 
M7 32 6 41 nmos W=2.1e-08 L=1.5e-08 NFIN=2 ADEO=2.835e-16 ASEO=2.835e-16 PDEO=5.85e-08 
+    PSEO=5.85e-08 $X=2.1625 $Y=0.0963 
M8 31 6 39 nmos W=2.1e-08 L=1.5e-08 NFIN=2 ADEO=2.835e-16 ASEO=2.835e-16 PDEO=5.85e-08 
+    PSEO=5.85e-08 $X=2.0785 $Y=0.0963 
M9 30 5 47 nmos W=2.1e-08 L=1.5e-08 NFIN=2 ADEO=2.835e-16 ASEO=2.835e-16 PDEO=5.85e-08 
+    PSEO=5.85e-08 $X=1.9945 $Y=0.0963 
M10 29 5 46 nmos W=2.1e-08 L=1.5e-08 NFIN=2 ADEO=2.835e-16 ASEO=2.835e-16 PDEO=5.85e-08 
+    PSEO=5.85e-08 $X=1.9105 $Y=0.0963 
M11 28 5 45 nmos W=2.1e-08 L=1.5e-08 NFIN=2 ADEO=2.835e-16 ASEO=2.835e-16 PDEO=5.85e-08 
+    PSEO=5.85e-08 $X=1.8265 $Y=0.0963 
M12 27 5 44 nmos W=2.1e-08 L=1.5e-08 NFIN=2 ADEO=2.835e-16 ASEO=2.835e-16 PDEO=5.85e-08 
+    PSEO=5.85e-08 $X=1.7425 $Y=0.0963 
M13 26 5 43 nmos W=2.1e-08 L=1.5e-08 NFIN=2 ADEO=2.835e-16 ASEO=2.835e-16 PDEO=5.85e-08 
+    PSEO=5.85e-08 $X=1.6585 $Y=0.0963 
M14 25 5 42 nmos W=2.1e-08 L=1.5e-08 NFIN=2 ADEO=2.835e-16 ASEO=2.835e-16 PDEO=5.85e-08 
+    PSEO=5.85e-08 $X=1.5745 $Y=0.0963 
M15 24 5 41 nmos W=2.1e-08 L=1.5e-08 NFIN=2 ADEO=2.835e-16 ASEO=2.835e-16 PDEO=5.85e-08 
+    PSEO=5.85e-08 $X=1.4905 $Y=0.0963 
M16 23 5 39 nmos W=2.1e-08 L=1.5e-08 NFIN=2 ADEO=2.835e-16 ASEO=2.835e-16 PDEO=5.85e-08 
+    PSEO=5.85e-08 $X=1.4065 $Y=0.0963 
M17 22 4 47 nmos W=2.1e-08 L=1.5e-08 NFIN=2 ADEO=2.835e-16 ASEO=2.835e-16 PDEO=5.85e-08 
+    PSEO=5.85e-08 $X=1.3225 $Y=0.0963 
M18 21 4 46 nmos W=2.1e-08 L=1.5e-08 NFIN=2 ADEO=2.835e-16 ASEO=2.835e-16 PDEO=5.85e-08 
+    PSEO=5.85e-08 $X=1.2385 $Y=0.0963 
M19 20 4 45 nmos W=2.1e-08 L=1.5e-08 NFIN=2 ADEO=2.835e-16 ASEO=2.835e-16 PDEO=5.85e-08 
+    PSEO=5.85e-08 $X=1.1545 $Y=0.0963 
M20 19 4 44 nmos W=2.1e-08 L=1.5e-08 NFIN=2 ADEO=2.835e-16 ASEO=2.835e-16 PDEO=5.85e-08 
+    PSEO=5.85e-08 $X=1.0705 $Y=0.0963 
M21 18 4 43 nmos W=2.1e-08 L=1.5e-08 NFIN=2 ADEO=2.835e-16 ASEO=2.835e-16 PDEO=5.85e-08 
+    PSEO=5.85e-08 $X=0.9865 $Y=0.0963 
M22 17 4 42 nmos W=2.1e-08 L=1.5e-08 NFIN=2 ADEO=2.835e-16 ASEO=2.835e-16 PDEO=5.85e-08 
+    PSEO=5.85e-08 $X=0.9025 $Y=0.0963 
M23 16 4 41 nmos W=2.1e-08 L=1.5e-08 NFIN=2 ADEO=2.835e-16 ASEO=2.835e-16 PDEO=5.85e-08 
+    PSEO=5.85e-08 $X=0.8185 $Y=0.0963 
M24 15 4 39 nmos W=2.1e-08 L=1.5e-08 NFIN=2 ADEO=2.835e-16 ASEO=2.835e-16 PDEO=5.85e-08 
+    PSEO=5.85e-08 $X=0.7345 $Y=0.0963 
M25 14 3 47 nmos W=2.1e-08 L=1.5e-08 NFIN=2 ADEO=2.835e-16 ASEO=2.835e-16 PDEO=5.85e-08 
+    PSEO=5.85e-08 $X=0.6505 $Y=0.0963 
M26 13 3 46 nmos W=2.1e-08 L=1.5e-08 NFIN=2 ADEO=2.835e-16 ASEO=2.835e-16 PDEO=5.85e-08 
+    PSEO=5.85e-08 $X=0.5665 $Y=0.0963 
M27 12 3 45 nmos W=2.1e-08 L=1.5e-08 NFIN=2 ADEO=2.835e-16 ASEO=2.835e-16 PDEO=5.85e-08 
+    PSEO=5.85e-08 $X=0.4825 $Y=0.0963 
M28 11 3 44 nmos W=2.1e-08 L=1.5e-08 NFIN=2 ADEO=2.835e-16 ASEO=2.835e-16 PDEO=5.85e-08 
+    PSEO=5.85e-08 $X=0.3985 $Y=0.0963 
M29 10 3 43 nmos W=2.1e-08 L=1.5e-08 NFIN=2 ADEO=2.835e-16 ASEO=2.835e-16 PDEO=5.85e-08 
+    PSEO=5.85e-08 $X=0.3145 $Y=0.0963 
M30 9 3 42 nmos W=2.1e-08 L=1.5e-08 NFIN=2 ADEO=2.835e-16 ASEO=2.835e-16 PDEO=5.85e-08 
+    PSEO=5.85e-08 $X=0.2305 $Y=0.0963 
M31 8 3 41 nmos W=2.1e-08 L=1.5e-08 NFIN=2 ADEO=2.835e-16 ASEO=2.835e-16 PDEO=5.85e-08 
+    PSEO=5.85e-08 $X=0.1465 $Y=0.0963 
M32 40 3 39 nmos W=2.1e-08 L=1.5e-08 NFIN=2 ADEO=2.835e-16 ASEO=2.835e-16 PDEO=5.85e-08 
+    PSEO=5.85e-08 $X=0.0625 $Y=0.0963 
X880FE34C35 2 7 49 4 5 6 3 48 demu_2_4 $T=-1.5540 -0.1390 0 0 
.ends column_decoder_new

.subckt bit_cell_array 2 3 4 5 6 7 8 9 VDD! GND! 12 13 CLK 15 16 17 18 19 20 21 22 
+    23 24 25 26 27 28 29 30 31 32 33 34 35 36 37 38 39 40 41 42 43 44 WENB D<0> 
+    D<1> D<3> D<2> A<4> A<3> A<2> 53 54 55 56 57 58 59 60 A<0> A<1> Q<3> Q<1> Q<0> 
+    Q<2> 
M1 44 60 321 nmos W=2.1e-08 L=1.5e-08 NFIN=2 ADEO=2.835e-16 ASEO=2.835e-16 PDEO=5.85e-08 
+    PSEO=5.85e-08 $X=5.1690 $Y=0.0187 
M2 44 59 289 nmos W=2.1e-08 L=1.5e-08 NFIN=2 ADEO=2.835e-16 ASEO=2.835e-16 PDEO=5.85e-08 
+    PSEO=5.85e-08 $X=5.1690 $Y=-0.2680 
M3 44 58 257 nmos W=2.1e-08 L=1.5e-08 NFIN=2 ADEO=2.835e-16 ASEO=2.835e-16 PDEO=5.85e-08 
+    PSEO=5.85e-08 $X=5.1690 $Y=-0.5547 
M4 GND! 322 321 nmos W=2.1e-08 L=1.5e-08 NFIN=4 ADEO=5.67e-16 ASEO=5.67e-16 PDEO=1.17e-07 
+    PSEO=1.17e-07 $X=5.0850 $Y=0.0760 
M5 GND! 290 289 nmos W=2.1e-08 L=1.5e-08 NFIN=4 ADEO=5.67e-16 ASEO=5.67e-16 PDEO=1.17e-07 
+    PSEO=1.17e-07 $X=5.0850 $Y=-0.1800 
M6 GND! 258 257 nmos W=2.1e-08 L=1.5e-08 NFIN=4 ADEO=5.67e-16 ASEO=5.67e-16 PDEO=1.17e-07 
+    PSEO=1.17e-07 $X=5.0850 $Y=-0.4667 
M7 322 321 GND! nmos W=2.1e-08 L=1.5e-08 NFIN=4 ADEO=5.67e-16 ASEO=5.67e-16 PDEO=1.17e-07 
+    PSEO=1.17e-07 $X=5.0010 $Y=0.0760 
M8 290 289 GND! nmos W=2.1e-08 L=1.5e-08 NFIN=4 ADEO=5.67e-16 ASEO=5.67e-16 PDEO=1.17e-07 
+    PSEO=1.17e-07 $X=5.0010 $Y=-0.1800 
M9 258 257 GND! nmos W=2.1e-08 L=1.5e-08 NFIN=4 ADEO=5.67e-16 ASEO=5.67e-16 PDEO=1.17e-07 
+    PSEO=1.17e-07 $X=5.0010 $Y=-0.4667 
M10 322 60 43 nmos W=2.1e-08 L=1.5e-08 NFIN=2 ADEO=2.835e-16 ASEO=2.835e-16 PDEO=5.85e-08 
+    PSEO=5.85e-08 $X=4.9170 $Y=0.0187 
M11 290 59 43 nmos W=2.1e-08 L=1.5e-08 NFIN=2 ADEO=2.835e-16 ASEO=2.835e-16 PDEO=5.85e-08 
+    PSEO=5.85e-08 $X=4.9170 $Y=-0.2680 
M12 258 58 43 nmos W=2.1e-08 L=1.5e-08 NFIN=2 ADEO=2.835e-16 ASEO=2.835e-16 PDEO=5.85e-08 
+    PSEO=5.85e-08 $X=4.9170 $Y=-0.5547 
M13 42 60 319 nmos W=2.1e-08 L=1.5e-08 NFIN=2 ADEO=2.835e-16 ASEO=2.835e-16 PDEO=5.85e-08 
+    PSEO=5.85e-08 $X=4.8330 $Y=0.0187 
M14 42 59 287 nmos W=2.1e-08 L=1.5e-08 NFIN=2 ADEO=2.835e-16 ASEO=2.835e-16 PDEO=5.85e-08 
+    PSEO=5.85e-08 $X=4.8330 $Y=-0.2680 
M15 42 58 255 nmos W=2.1e-08 L=1.5e-08 NFIN=2 ADEO=2.835e-16 ASEO=2.835e-16 PDEO=5.85e-08 
+    PSEO=5.85e-08 $X=4.8330 $Y=-0.5547 
M16 GND! 320 319 nmos W=2.1e-08 L=1.5e-08 NFIN=4 ADEO=5.67e-16 ASEO=5.67e-16 PDEO=1.17e-07 
+    PSEO=1.17e-07 $X=4.7490 $Y=0.0760 
M17 GND! 288 287 nmos W=2.1e-08 L=1.5e-08 NFIN=4 ADEO=5.67e-16 ASEO=5.67e-16 PDEO=1.17e-07 
+    PSEO=1.17e-07 $X=4.7490 $Y=-0.1800 
M18 GND! 256 255 nmos W=2.1e-08 L=1.5e-08 NFIN=4 ADEO=5.67e-16 ASEO=5.67e-16 PDEO=1.17e-07 
+    PSEO=1.17e-07 $X=4.7490 $Y=-0.4667 
M19 320 319 GND! nmos W=2.1e-08 L=1.5e-08 NFIN=4 ADEO=5.67e-16 ASEO=5.67e-16 PDEO=1.17e-07 
+    PSEO=1.17e-07 $X=4.6650 $Y=0.0760 
M20 288 287 GND! nmos W=2.1e-08 L=1.5e-08 NFIN=4 ADEO=5.67e-16 ASEO=5.67e-16 PDEO=1.17e-07 
+    PSEO=1.17e-07 $X=4.6650 $Y=-0.1800 
M21 256 255 GND! nmos W=2.1e-08 L=1.5e-08 NFIN=4 ADEO=5.67e-16 ASEO=5.67e-16 PDEO=1.17e-07 
+    PSEO=1.17e-07 $X=4.6650 $Y=-0.4667 
M22 320 60 41 nmos W=2.1e-08 L=1.5e-08 NFIN=2 ADEO=2.835e-16 ASEO=2.835e-16 PDEO=5.85e-08 
+    PSEO=5.85e-08 $X=4.5810 $Y=0.0187 
M23 288 59 41 nmos W=2.1e-08 L=1.5e-08 NFIN=2 ADEO=2.835e-16 ASEO=2.835e-16 PDEO=5.85e-08 
+    PSEO=5.85e-08 $X=4.5810 $Y=-0.2680 
M24 256 58 41 nmos W=2.1e-08 L=1.5e-08 NFIN=2 ADEO=2.835e-16 ASEO=2.835e-16 PDEO=5.85e-08 
+    PSEO=5.85e-08 $X=4.5810 $Y=-0.5547 
M25 40 60 317 nmos W=2.1e-08 L=1.5e-08 NFIN=2 ADEO=2.835e-16 ASEO=2.835e-16 PDEO=5.85e-08 
+    PSEO=5.85e-08 $X=4.4970 $Y=0.0187 
M26 40 59 285 nmos W=2.1e-08 L=1.5e-08 NFIN=2 ADEO=2.835e-16 ASEO=2.835e-16 PDEO=5.85e-08 
+    PSEO=5.85e-08 $X=4.4970 $Y=-0.2680 
M27 40 58 253 nmos W=2.1e-08 L=1.5e-08 NFIN=2 ADEO=2.835e-16 ASEO=2.835e-16 PDEO=5.85e-08 
+    PSEO=5.85e-08 $X=4.4970 $Y=-0.5547 
M28 GND! 318 317 nmos W=2.1e-08 L=1.5e-08 NFIN=4 ADEO=5.67e-16 ASEO=5.67e-16 PDEO=1.17e-07 
+    PSEO=1.17e-07 $X=4.4130 $Y=0.0760 
M29 GND! 286 285 nmos W=2.1e-08 L=1.5e-08 NFIN=4 ADEO=5.67e-16 ASEO=5.67e-16 PDEO=1.17e-07 
+    PSEO=1.17e-07 $X=4.4130 $Y=-0.1800 
M30 GND! 254 253 nmos W=2.1e-08 L=1.5e-08 NFIN=4 ADEO=5.67e-16 ASEO=5.67e-16 PDEO=1.17e-07 
+    PSEO=1.17e-07 $X=4.4130 $Y=-0.4667 
M31 318 317 GND! nmos W=2.1e-08 L=1.5e-08 NFIN=4 ADEO=5.67e-16 ASEO=5.67e-16 PDEO=1.17e-07 
+    PSEO=1.17e-07 $X=4.3290 $Y=0.0760 
M32 286 285 GND! nmos W=2.1e-08 L=1.5e-08 NFIN=4 ADEO=5.67e-16 ASEO=5.67e-16 PDEO=1.17e-07 
+    PSEO=1.17e-07 $X=4.3290 $Y=-0.1800 
M33 254 253 GND! nmos W=2.1e-08 L=1.5e-08 NFIN=4 ADEO=5.67e-16 ASEO=5.67e-16 PDEO=1.17e-07 
+    PSEO=1.17e-07 $X=4.3290 $Y=-0.4667 
M34 318 60 39 nmos W=2.1e-08 L=1.5e-08 NFIN=2 ADEO=2.835e-16 ASEO=2.835e-16 PDEO=5.85e-08 
+    PSEO=5.85e-08 $X=4.2450 $Y=0.0187 
M35 286 59 39 nmos W=2.1e-08 L=1.5e-08 NFIN=2 ADEO=2.835e-16 ASEO=2.835e-16 PDEO=5.85e-08 
+    PSEO=5.85e-08 $X=4.2450 $Y=-0.2680 
M36 254 58 39 nmos W=2.1e-08 L=1.5e-08 NFIN=2 ADEO=2.835e-16 ASEO=2.835e-16 PDEO=5.85e-08 
+    PSEO=5.85e-08 $X=4.2450 $Y=-0.5547 
M37 38 60 315 nmos W=2.1e-08 L=1.5e-08 NFIN=2 ADEO=2.835e-16 ASEO=2.835e-16 PDEO=5.85e-08 
+    PSEO=5.85e-08 $X=4.1610 $Y=0.0187 
M38 38 59 283 nmos W=2.1e-08 L=1.5e-08 NFIN=2 ADEO=2.835e-16 ASEO=2.835e-16 PDEO=5.85e-08 
+    PSEO=5.85e-08 $X=4.1610 $Y=-0.2680 
M39 38 58 251 nmos W=2.1e-08 L=1.5e-08 NFIN=2 ADEO=2.835e-16 ASEO=2.835e-16 PDEO=5.85e-08 
+    PSEO=5.85e-08 $X=4.1610 $Y=-0.5547 
M40 GND! 316 315 nmos W=2.1e-08 L=1.5e-08 NFIN=4 ADEO=5.67e-16 ASEO=5.67e-16 PDEO=1.17e-07 
+    PSEO=1.17e-07 $X=4.0770 $Y=0.0760 
M41 GND! 284 283 nmos W=2.1e-08 L=1.5e-08 NFIN=4 ADEO=5.67e-16 ASEO=5.67e-16 PDEO=1.17e-07 
+    PSEO=1.17e-07 $X=4.0770 $Y=-0.1800 
M42 GND! 252 251 nmos W=2.1e-08 L=1.5e-08 NFIN=4 ADEO=5.67e-16 ASEO=5.67e-16 PDEO=1.17e-07 
+    PSEO=1.17e-07 $X=4.0770 $Y=-0.4667 
M43 316 315 GND! nmos W=2.1e-08 L=1.5e-08 NFIN=4 ADEO=5.67e-16 ASEO=5.67e-16 PDEO=1.17e-07 
+    PSEO=1.17e-07 $X=3.9930 $Y=0.0760 
M44 284 283 GND! nmos W=2.1e-08 L=1.5e-08 NFIN=4 ADEO=5.67e-16 ASEO=5.67e-16 PDEO=1.17e-07 
+    PSEO=1.17e-07 $X=3.9930 $Y=-0.1800 
M45 252 251 GND! nmos W=2.1e-08 L=1.5e-08 NFIN=4 ADEO=5.67e-16 ASEO=5.67e-16 PDEO=1.17e-07 
+    PSEO=1.17e-07 $X=3.9930 $Y=-0.4667 
M46 316 60 37 nmos W=2.1e-08 L=1.5e-08 NFIN=2 ADEO=2.835e-16 ASEO=2.835e-16 PDEO=5.85e-08 
+    PSEO=5.85e-08 $X=3.9090 $Y=0.0187 
M47 284 59 37 nmos W=2.1e-08 L=1.5e-08 NFIN=2 ADEO=2.835e-16 ASEO=2.835e-16 PDEO=5.85e-08 
+    PSEO=5.85e-08 $X=3.9090 $Y=-0.2680 
M48 252 58 37 nmos W=2.1e-08 L=1.5e-08 NFIN=2 ADEO=2.835e-16 ASEO=2.835e-16 PDEO=5.85e-08 
+    PSEO=5.85e-08 $X=3.9090 $Y=-0.5547 
M49 36 60 313 nmos W=2.1e-08 L=1.5e-08 NFIN=2 ADEO=2.835e-16 ASEO=2.835e-16 PDEO=5.85e-08 
+    PSEO=5.85e-08 $X=3.8250 $Y=0.0187 
M50 36 59 281 nmos W=2.1e-08 L=1.5e-08 NFIN=2 ADEO=2.835e-16 ASEO=2.835e-16 PDEO=5.85e-08 
+    PSEO=5.85e-08 $X=3.8250 $Y=-0.2680 
M51 36 58 249 nmos W=2.1e-08 L=1.5e-08 NFIN=2 ADEO=2.835e-16 ASEO=2.835e-16 PDEO=5.85e-08 
+    PSEO=5.85e-08 $X=3.8250 $Y=-0.5547 
M52 GND! 314 313 nmos W=2.1e-08 L=1.5e-08 NFIN=4 ADEO=5.67e-16 ASEO=5.67e-16 PDEO=1.17e-07 
+    PSEO=1.17e-07 $X=3.7410 $Y=0.0760 
M53 GND! 282 281 nmos W=2.1e-08 L=1.5e-08 NFIN=4 ADEO=5.67e-16 ASEO=5.67e-16 PDEO=1.17e-07 
+    PSEO=1.17e-07 $X=3.7410 $Y=-0.1800 
M54 GND! 250 249 nmos W=2.1e-08 L=1.5e-08 NFIN=4 ADEO=5.67e-16 ASEO=5.67e-16 PDEO=1.17e-07 
+    PSEO=1.17e-07 $X=3.7410 $Y=-0.4667 
M55 314 313 GND! nmos W=2.1e-08 L=1.5e-08 NFIN=4 ADEO=5.67e-16 ASEO=5.67e-16 PDEO=1.17e-07 
+    PSEO=1.17e-07 $X=3.6570 $Y=0.0760 
M56 282 281 GND! nmos W=2.1e-08 L=1.5e-08 NFIN=4 ADEO=5.67e-16 ASEO=5.67e-16 PDEO=1.17e-07 
+    PSEO=1.17e-07 $X=3.6570 $Y=-0.1800 
M57 314 60 35 nmos W=2.1e-08 L=1.5e-08 NFIN=2 ADEO=2.835e-16 ASEO=2.835e-16 PDEO=5.85e-08 
+    PSEO=5.85e-08 $X=3.5730 $Y=0.0187 
M58 282 59 35 nmos W=2.1e-08 L=1.5e-08 NFIN=2 ADEO=2.835e-16 ASEO=2.835e-16 PDEO=5.85e-08 
+    PSEO=5.85e-08 $X=3.5730 $Y=-0.2680 
M59 34 60 311 nmos W=2.1e-08 L=1.5e-08 NFIN=2 ADEO=2.835e-16 ASEO=2.835e-16 PDEO=5.85e-08 
+    PSEO=5.85e-08 $X=3.4890 $Y=0.0187 
M60 34 59 279 nmos W=2.1e-08 L=1.5e-08 NFIN=2 ADEO=2.835e-16 ASEO=2.835e-16 PDEO=5.85e-08 
+    PSEO=5.85e-08 $X=3.4890 $Y=-0.2680 
M61 GND! 312 311 nmos W=2.1e-08 L=1.5e-08 NFIN=4 ADEO=5.67e-16 ASEO=5.67e-16 PDEO=1.17e-07 
+    PSEO=1.17e-07 $X=3.4050 $Y=0.0760 
M62 GND! 280 279 nmos W=2.1e-08 L=1.5e-08 NFIN=4 ADEO=5.67e-16 ASEO=5.67e-16 PDEO=1.17e-07 
+    PSEO=1.17e-07 $X=3.4050 $Y=-0.1800 
M63 312 311 GND! nmos W=2.1e-08 L=1.5e-08 NFIN=4 ADEO=5.67e-16 ASEO=5.67e-16 PDEO=1.17e-07 
+    PSEO=1.17e-07 $X=3.3210 $Y=0.0760 
M64 280 279 GND! nmos W=2.1e-08 L=1.5e-08 NFIN=4 ADEO=5.67e-16 ASEO=5.67e-16 PDEO=1.17e-07 
+    PSEO=1.17e-07 $X=3.3210 $Y=-0.1800 
M65 312 60 33 nmos W=2.1e-08 L=1.5e-08 NFIN=2 ADEO=2.835e-16 ASEO=2.835e-16 PDEO=5.85e-08 
+    PSEO=5.85e-08 $X=3.2370 $Y=0.0187 
M66 280 59 33 nmos W=2.1e-08 L=1.5e-08 NFIN=2 ADEO=2.835e-16 ASEO=2.835e-16 PDEO=5.85e-08 
+    PSEO=5.85e-08 $X=3.2370 $Y=-0.2680 
M67 250 249 GND! nmos W=2.1e-08 L=1.5e-08 NFIN=4 ADEO=5.67e-16 ASEO=5.67e-16 PDEO=1.17e-07 
+    PSEO=1.17e-07 $X=3.6570 $Y=-0.4667 
M68 250 58 35 nmos W=2.1e-08 L=1.5e-08 NFIN=2 ADEO=2.835e-16 ASEO=2.835e-16 PDEO=5.85e-08 
+    PSEO=5.85e-08 $X=3.5730 $Y=-0.5547 
M69 34 58 247 nmos W=2.1e-08 L=1.5e-08 NFIN=2 ADEO=2.835e-16 ASEO=2.835e-16 PDEO=5.85e-08 
+    PSEO=5.85e-08 $X=3.4890 $Y=-0.5547 
M70 GND! 248 247 nmos W=2.1e-08 L=1.5e-08 NFIN=4 ADEO=5.67e-16 ASEO=5.67e-16 PDEO=1.17e-07 
+    PSEO=1.17e-07 $X=3.4050 $Y=-0.4667 
M71 248 247 GND! nmos W=2.1e-08 L=1.5e-08 NFIN=4 ADEO=5.67e-16 ASEO=5.67e-16 PDEO=1.17e-07 
+    PSEO=1.17e-07 $X=3.3210 $Y=-0.4667 
M72 248 58 33 nmos W=2.1e-08 L=1.5e-08 NFIN=2 ADEO=2.835e-16 ASEO=2.835e-16 PDEO=5.85e-08 
+    PSEO=5.85e-08 $X=3.2370 $Y=-0.5547 
M73 32 60 309 nmos W=2.1e-08 L=1.5e-08 NFIN=2 ADEO=2.835e-16 ASEO=2.835e-16 PDEO=5.85e-08 
+    PSEO=5.85e-08 $X=3.1530 $Y=0.0187 
M74 32 59 277 nmos W=2.1e-08 L=1.5e-08 NFIN=2 ADEO=2.835e-16 ASEO=2.835e-16 PDEO=5.85e-08 
+    PSEO=5.85e-08 $X=3.1530 $Y=-0.2680 
M75 32 58 245 nmos W=2.1e-08 L=1.5e-08 NFIN=2 ADEO=2.835e-16 ASEO=2.835e-16 PDEO=5.85e-08 
+    PSEO=5.85e-08 $X=3.1530 $Y=-0.5547 
M76 GND! 310 309 nmos W=2.1e-08 L=1.5e-08 NFIN=4 ADEO=5.67e-16 ASEO=5.67e-16 PDEO=1.17e-07 
+    PSEO=1.17e-07 $X=3.0690 $Y=0.0760 
M77 GND! 278 277 nmos W=2.1e-08 L=1.5e-08 NFIN=4 ADEO=5.67e-16 ASEO=5.67e-16 PDEO=1.17e-07 
+    PSEO=1.17e-07 $X=3.0690 $Y=-0.1800 
M78 GND! 246 245 nmos W=2.1e-08 L=1.5e-08 NFIN=4 ADEO=5.67e-16 ASEO=5.67e-16 PDEO=1.17e-07 
+    PSEO=1.17e-07 $X=3.0690 $Y=-0.4667 
M79 310 309 GND! nmos W=2.1e-08 L=1.5e-08 NFIN=4 ADEO=5.67e-16 ASEO=5.67e-16 PDEO=1.17e-07 
+    PSEO=1.17e-07 $X=2.9850 $Y=0.0760 
M80 278 277 GND! nmos W=2.1e-08 L=1.5e-08 NFIN=4 ADEO=5.67e-16 ASEO=5.67e-16 PDEO=1.17e-07 
+    PSEO=1.17e-07 $X=2.9850 $Y=-0.1800 
M81 246 245 GND! nmos W=2.1e-08 L=1.5e-08 NFIN=4 ADEO=5.67e-16 ASEO=5.67e-16 PDEO=1.17e-07 
+    PSEO=1.17e-07 $X=2.9850 $Y=-0.4667 
M82 310 60 31 nmos W=2.1e-08 L=1.5e-08 NFIN=2 ADEO=2.835e-16 ASEO=2.835e-16 PDEO=5.85e-08 
+    PSEO=5.85e-08 $X=2.9010 $Y=0.0187 
M83 278 59 31 nmos W=2.1e-08 L=1.5e-08 NFIN=2 ADEO=2.835e-16 ASEO=2.835e-16 PDEO=5.85e-08 
+    PSEO=5.85e-08 $X=2.9010 $Y=-0.2680 
M84 246 58 31 nmos W=2.1e-08 L=1.5e-08 NFIN=2 ADEO=2.835e-16 ASEO=2.835e-16 PDEO=5.85e-08 
+    PSEO=5.85e-08 $X=2.9010 $Y=-0.5547 
M85 30 60 307 nmos W=2.1e-08 L=1.5e-08 NFIN=2 ADEO=2.835e-16 ASEO=2.835e-16 PDEO=5.85e-08 
+    PSEO=5.85e-08 $X=2.8170 $Y=0.0187 
M86 30 59 275 nmos W=2.1e-08 L=1.5e-08 NFIN=2 ADEO=2.835e-16 ASEO=2.835e-16 PDEO=5.85e-08 
+    PSEO=5.85e-08 $X=2.8170 $Y=-0.2680 
M87 30 58 243 nmos W=2.1e-08 L=1.5e-08 NFIN=2 ADEO=2.835e-16 ASEO=2.835e-16 PDEO=5.85e-08 
+    PSEO=5.85e-08 $X=2.8170 $Y=-0.5547 
M88 GND! 308 307 nmos W=2.1e-08 L=1.5e-08 NFIN=4 ADEO=5.67e-16 ASEO=5.67e-16 PDEO=1.17e-07 
+    PSEO=1.17e-07 $X=2.7330 $Y=0.0760 
M89 GND! 276 275 nmos W=2.1e-08 L=1.5e-08 NFIN=4 ADEO=5.67e-16 ASEO=5.67e-16 PDEO=1.17e-07 
+    PSEO=1.17e-07 $X=2.7330 $Y=-0.1800 
M90 GND! 244 243 nmos W=2.1e-08 L=1.5e-08 NFIN=4 ADEO=5.67e-16 ASEO=5.67e-16 PDEO=1.17e-07 
+    PSEO=1.17e-07 $X=2.7330 $Y=-0.4667 
M91 308 307 GND! nmos W=2.1e-08 L=1.5e-08 NFIN=4 ADEO=5.67e-16 ASEO=5.67e-16 PDEO=1.17e-07 
+    PSEO=1.17e-07 $X=2.6490 $Y=0.0760 
M92 308 60 29 nmos W=2.1e-08 L=1.5e-08 NFIN=2 ADEO=2.835e-16 ASEO=2.835e-16 PDEO=5.85e-08 
+    PSEO=5.85e-08 $X=2.5650 $Y=0.0187 
M93 28 60 305 nmos W=2.1e-08 L=1.5e-08 NFIN=2 ADEO=2.835e-16 ASEO=2.835e-16 PDEO=5.85e-08 
+    PSEO=5.85e-08 $X=2.4810 $Y=0.0187 
M94 GND! 306 305 nmos W=2.1e-08 L=1.5e-08 NFIN=4 ADEO=5.67e-16 ASEO=5.67e-16 PDEO=1.17e-07 
+    PSEO=1.17e-07 $X=2.3970 $Y=0.0760 
M95 306 305 GND! nmos W=2.1e-08 L=1.5e-08 NFIN=4 ADEO=5.67e-16 ASEO=5.67e-16 PDEO=1.17e-07 
+    PSEO=1.17e-07 $X=2.3130 $Y=0.0760 
M96 306 60 27 nmos W=2.1e-08 L=1.5e-08 NFIN=2 ADEO=2.835e-16 ASEO=2.835e-16 PDEO=5.85e-08 
+    PSEO=5.85e-08 $X=2.2290 $Y=0.0187 
M97 276 275 GND! nmos W=2.1e-08 L=1.5e-08 NFIN=4 ADEO=5.67e-16 ASEO=5.67e-16 PDEO=1.17e-07 
+    PSEO=1.17e-07 $X=2.6490 $Y=-0.1800 
M98 244 243 GND! nmos W=2.1e-08 L=1.5e-08 NFIN=4 ADEO=5.67e-16 ASEO=5.67e-16 PDEO=1.17e-07 
+    PSEO=1.17e-07 $X=2.6490 $Y=-0.4667 
M99 276 59 29 nmos W=2.1e-08 L=1.5e-08 NFIN=2 ADEO=2.835e-16 ASEO=2.835e-16 PDEO=5.85e-08 
+    PSEO=5.85e-08 $X=2.5650 $Y=-0.2680 