* PEX netlist file	Wed May  4 03:42:47 2022	bit_cell_array
* icv_netlist Version RHEL64 S-2021.06-SP2.6831572 2021/08/30
*.UNIT=4000

* Hierarchy Level 3
.subckt bitcell 2 3 4 5 6 7 8 9 10 11 12
*.floating_nets _GENERATED_13
.ends bitcell
.subckt tspc_flip_flop 2 3 4 5 6 7 8 9 10 11 12
+	13 14 15
*.floating_nets _GENERATED_16 _GENERATED_17 _GENERATED_18 _GENERATED_19 _GENERATED_20 _GENERATED_21 _GENERATED_22 _GENERATED_23 _GENERATED_24 _GENERATED_25 _GENERATED_26
*+	_GENERATED_27
.ends tspc_flip_flop
.subckt inverter_write_driver 2 3 4 5 6 7 8 9 10
MM1 2 3 7 nmos  W=2.1e-08 L=1.5e-08 NFIN=2 ADEO=2.835e-16 ASEO=2.835e-16 PDEO=5.85e-08
+	 PSEO=5.85e-08 $X=30 $Y=120  $PIN_XY=60,-76,30,120,0,-76 $DEVICE_ID=1001
MM2 2 3 8 pmos  W=2.1e-08 L=1.5e-08 NFIN=2 ADEO=2.835e-16 ASEO=2.835e-16 PDEO=5.85e-08
+	 PSEO=5.85e-08 $X=30 $Y=120  $PIN_XY=60,316,30,120,0,316 $DEVICE_ID=1003
.ends inverter_write_driver
.subckt inv_2 2 3 4 5 6 7 8
.ends inv_2
.subckt nor_5 2 3 4 5 6 7 8 9 10 11
*.floating_nets _GENERATED_12 _GENERATED_13
.ends nor_5
.subckt and_2 2 3 4 5 6 7 8 9 10 11 12
*.floating_nets _GENERATED_13
MM1 5 3 6 nmos  W=2.1e-08 L=1.5e-08 NFIN=2 ADEO=2.835e-16 ASEO=2.835e-16 PDEO=5.85e-08
+	 PSEO=5.85e-08 $X=2450 $Y=1254  $PIN_XY=2480,1082,2450,1254,2420,1082 $DEVICE_ID=1001
.ends and_2

* Hierarchy Level 2
.subckt Write_Driver 3 4 6 7 18 19 20 21 22 23 24
*.floating_nets 14 15 16 17 _GENERATED_46 _GENERATED_47 _GENERATED_48 _GENERATED_49 _GENERATED_50 _GENERATED_51 _GENERATED_52
*+	_GENERATED_53
MM1 18 9 2 nmos  W=2.1e-08 L=1.5e-08 NFIN=2 ADEO=2.835e-16 ASEO=2.835e-16 PDEO=5.85e-08
+	 PSEO=5.85e-08 $X=1548 $Y=215  $PIN_XY=1578,252,1548,215,1518,252 $DEVICE_ID=1001
MM2 5 6 18 nmos  W=2.1e-08 L=1.5e-08 NFIN=2 ADEO=2.835e-16 ASEO=2.835e-16 PDEO=5.85e-08
+	 PSEO=5.85e-08 $X=1212 $Y=243  $PIN_XY=1242,252,1212,243,1182,252 $DEVICE_ID=1001
MM3 2 8 4 nmos  W=2.1e-08 L=1.5e-08 NFIN=2 ADEO=2.835e-16 ASEO=2.835e-16 PDEO=5.85e-08
+	 PSEO=5.85e-08 $X=204 $Y=264  $PIN_XY=234,252,204,264,174,252 $DEVICE_ID=1001
MM4 5 8 3 nmos  W=2.1e-08 L=1.5e-08 NFIN=2 ADEO=2.835e-16 ASEO=2.835e-16 PDEO=5.85e-08
+	 PSEO=5.85e-08 $X=-132 $Y=264  $PIN_XY=-102,252,-132,264,-162,252 $DEVICE_ID=1001
XX880FE34C36 9 6 10 _GENERATED_25 11 18 19 20 21 inverter_write_driver $T=846 328 0 0 $X=582 $Y=24
XX880FE34C37 8 7 12 13 10 18 19 20 21 inverter_write_driver $T=510 328 0 0 $X=246 $Y=24
.ends Write_Driver
.subckt bit_conditioning 3 4 5 6 7 8 9 10
*.floating_nets _GENERATED_19 _GENERATED_20 _GENERATED_21 _GENERATED_22
MM1 2 5 7 nmos  W=2.1e-08 L=1.5e-08 NFIN=2 ADEO=2.835e-16 ASEO=2.835e-16 PDEO=5.85e-08
+	 PSEO=5.85e-08 $X=3000 $Y=1838  $PIN_XY=3030,1668,3000,1838,2970,1668 $DEVICE_ID=1001
MM2 2 5 6 pmos  W=2.1e-08 L=1.5e-08 NFIN=4 ADEO=5.67e-16 ASEO=5.67e-16 PDEO=1.17e-07
+	 PSEO=1.17e-07 $X=3000 $Y=1838  $PIN_XY=(3030,2008,3030,1838),3000,1838,(2970,2008,2970,1838) $DEVICE_ID=1003
MM3 4 2 6 pmos  W=2.1e-08 L=1.5e-08 NFIN=2 ADEO=2.835e-16 ASEO=2.835e-16 PDEO=5.85e-08
+	 PSEO=5.85e-08 $X=2664 $Y=1838  $PIN_XY=2694,1838,2664,1838,2634,1838 $DEVICE_ID=1003
MM4 3 2 6 pmos  W=2.1e-08 L=1.5e-08 NFIN=2 ADEO=2.835e-16 ASEO=2.835e-16 PDEO=5.85e-08
+	 PSEO=5.85e-08 $X=2328 $Y=1838  $PIN_XY=2358,1838,2328,1838,2298,1838 $DEVICE_ID=1003
XX880FE34C38 5 2 7 6 8 9 10 inv_2 $T=3000 1668 0 0 $X=2778 $Y=1460
.ends bit_conditioning
.subckt rowdecoder 2 4 5 7 8 10 11 12 13 14 15
+	16 17
*.floating_nets 18 19 _GENERATED_159 _GENERATED_160 _GENERATED_161 _GENERATED_162 _GENERATED_163 _GENERATED_164 _GENERATED_165 _GENERATED_166 _GENERATED_167
*+	_GENERATED_168 _GENERATED_169 _GENERATED_170
MM1 10 2 7 nmos  W=2.1e-08 L=1.5e-08 NFIN=2 ADEO=2.835e-16 ASEO=2.835e-16 PDEO=5.85e-08
+	 PSEO=5.85e-08 $X=3722 $Y=9152  $PIN_XY=3752,9152,3722,9152,3692,9152 $DEVICE_ID=1001
MM2 11 2 7 nmos  W=2.1e-08 L=1.5e-08 NFIN=2 ADEO=2.835e-16 ASEO=2.835e-16 PDEO=5.85e-08
+	 PSEO=5.85e-08 $X=3722 $Y=8004  $PIN_XY=3752,8004,3722,8004,3692,8004 $DEVICE_ID=1001
MM3 12 3 7 nmos  W=2.1e-08 L=1.5e-08 NFIN=2 ADEO=2.835e-16 ASEO=2.835e-16 PDEO=5.85e-08
+	 PSEO=5.85e-08 $X=3722 $Y=6854  $PIN_XY=3752,6854,3722,6854,3692,6854 $DEVICE_ID=1001
MM4 13 3 7 nmos  W=2.1e-08 L=1.5e-08 NFIN=2 ADEO=2.835e-16 ASEO=2.835e-16 PDEO=5.85e-08
+	 PSEO=5.85e-08 $X=3722 $Y=5706  $PIN_XY=3752,5706,3722,5706,3692,5706 $DEVICE_ID=1001
MM5 14 2 7 nmos  W=2.1e-08 L=1.5e-08 NFIN=2 ADEO=2.835e-16 ASEO=2.835e-16 PDEO=5.85e-08
+	 PSEO=5.85e-08 $X=3722 $Y=4558  $PIN_XY=3752,4558,3722,4558,3692,4558 $DEVICE_ID=1001
MM6 15 2 7 nmos  W=2.1e-08 L=1.5e-08 NFIN=2 ADEO=2.835e-16 ASEO=2.835e-16 PDEO=5.85e-08
+	 PSEO=5.85e-08 $X=3722 $Y=3410  $PIN_XY=3752,3410,3722,3410,3692,3410 $DEVICE_ID=1001
MM7 16 3 7 nmos  W=2.1e-08 L=1.5e-08 NFIN=2 ADEO=2.835e-16 ASEO=2.835e-16 PDEO=5.85e-08
+	 PSEO=5.85e-08 $X=3722 $Y=2262  $PIN_XY=3752,2262,3722,2262,3692,2262 $DEVICE_ID=1001
MM8 17 3 7 nmos  W=2.1e-08 L=1.5e-08 NFIN=2 ADEO=2.835e-16 ASEO=2.835e-16 PDEO=5.85e-08
+	 PSEO=5.85e-08 $X=3722 $Y=1114  $PIN_XY=3752,1114,3722,1114,3692,1114 $DEVICE_ID=1001
MM9 10 8 7 nmos  W=2.1e-08 L=1.5e-08 NFIN=2 ADEO=2.835e-16 ASEO=2.835e-16 PDEO=5.85e-08
+	 PSEO=5.85e-08 $X=3386 $Y=9350  $PIN_XY=3416,9152,3386,9350,3356,9152 $DEVICE_ID=1001
MM10 11 9 7 nmos  W=2.1e-08 L=1.5e-08 NFIN=2 ADEO=2.835e-16 ASEO=2.835e-16 PDEO=5.85e-08
+	 PSEO=5.85e-08 $X=3386 $Y=8202  $PIN_XY=3416,8004,3386,8202,3356,8004 $DEVICE_ID=1001
MM11 12 8 7 nmos  W=2.1e-08 L=1.5e-08 NFIN=2 ADEO=2.835e-16 ASEO=2.835e-16 PDEO=5.85e-08
+	 PSEO=5.85e-08 $X=3386 $Y=7052  $PIN_XY=3416,6854,3386,7052,3356,6854 $DEVICE_ID=1001
MM12 13 9 7 nmos  W=2.1e-08 L=1.5e-08 NFIN=2 ADEO=2.835e-16 ASEO=2.835e-16 PDEO=5.85e-08
+	 PSEO=5.85e-08 $X=3386 $Y=5904  $PIN_XY=3416,5706,3386,5904,3356,5706 $DEVICE_ID=1001
MM13 14 8 7 nmos  W=2.1e-08 L=1.5e-08 NFIN=2 ADEO=2.835e-16 ASEO=2.835e-16 PDEO=5.85e-08
+	 PSEO=5.85e-08 $X=3386 $Y=4756  $PIN_XY=3416,4558,3386,4756,3356,4558 $DEVICE_ID=1001
MM14 15 9 7 nmos  W=2.1e-08 L=1.5e-08 NFIN=2 ADEO=2.835e-16 ASEO=2.835e-16 PDEO=5.85e-08
+	 PSEO=5.85e-08 $X=3386 $Y=3608  $PIN_XY=3416,3410,3386,3608,3356,3410 $DEVICE_ID=1001
MM15 16 8 7 nmos  W=2.1e-08 L=1.5e-08 NFIN=2 ADEO=2.835e-16 ASEO=2.835e-16 PDEO=5.85e-08
+	 PSEO=5.85e-08 $X=3386 $Y=2460  $PIN_XY=3416,2262,3386,2460,3356,2262 $DEVICE_ID=1001
MM16 17 9 7 nmos  W=2.1e-08 L=1.5e-08 NFIN=2 ADEO=2.835e-16 ASEO=2.835e-16 PDEO=5.85e-08
+	 PSEO=5.85e-08 $X=3386 $Y=1312  $PIN_XY=3416,1114,3386,1312,3356,1114 $DEVICE_ID=1001
MM17 10 5 7 nmos  W=2.1e-08 L=1.5e-08 NFIN=2 ADEO=2.835e-16 ASEO=2.835e-16 PDEO=5.85e-08
+	 PSEO=5.85e-08 $X=3050 $Y=9350  $PIN_XY=3080,9152,3050,9350,3020,9152 $DEVICE_ID=1001
MM18 11 5 7 nmos  W=2.1e-08 L=1.5e-08 NFIN=2 ADEO=2.835e-16 ASEO=2.835e-16 PDEO=5.85e-08
+	 PSEO=5.85e-08 $X=3050 $Y=8202  $PIN_XY=3080,8004,3050,8202,3020,8004 $DEVICE_ID=1001
MM19 12 5 7 nmos  W=2.1e-08 L=1.5e-08 NFIN=2 ADEO=2.835e-16 ASEO=2.835e-16 PDEO=5.85e-08
+	 PSEO=5.85e-08 $X=3050 $Y=7052  $PIN_XY=3080,6854,3050,7052,3020,6854 $DEVICE_ID=1001
MM20 13 5 7 nmos  W=2.1e-08 L=1.5e-08 NFIN=2 ADEO=2.835e-16 ASEO=2.835e-16 PDEO=5.85e-08
+	 PSEO=5.85e-08 $X=3050 $Y=5904  $PIN_XY=3080,5706,3050,5904,3020,5706 $DEVICE_ID=1001
MM21 14 6 7 nmos  W=2.1e-08 L=1.5e-08 NFIN=2 ADEO=2.835e-16 ASEO=2.835e-16 PDEO=5.85e-08
+	 PSEO=5.85e-08 $X=3050 $Y=4756  $PIN_XY=3080,4558,3050,4756,3020,4558 $DEVICE_ID=1001
MM22 15 6 7 nmos  W=2.1e-08 L=1.5e-08 NFIN=2 ADEO=2.835e-16 ASEO=2.835e-16 PDEO=5.85e-08
+	 PSEO=5.85e-08 $X=3050 $Y=3608  $PIN_XY=3080,3410,3050,3608,3020,3410 $DEVICE_ID=1001
MM23 16 6 7 nmos  W=2.1e-08 L=1.5e-08 NFIN=2 ADEO=2.835e-16 ASEO=2.835e-16 PDEO=5.85e-08
+	 PSEO=5.85e-08 $X=3050 $Y=2460  $PIN_XY=3080,2262,3050,2460,3020,2262 $DEVICE_ID=1001
MM24 17 6 7 nmos  W=2.1e-08 L=1.5e-08 NFIN=2 ADEO=2.835e-16 ASEO=2.835e-16 PDEO=5.85e-08
+	 PSEO=5.85e-08 $X=3050 $Y=1312  $PIN_XY=3080,1114,3050,1312,3020,1114 $DEVICE_ID=1001
MM25 9 8 7 nmos  W=2.1e-08 L=1.5e-08 NFIN=2 ADEO=2.835e-16 ASEO=2.835e-16 PDEO=5.85e-08
+	 PSEO=5.85e-08 $X=2192 $Y=512  $PIN_XY=2222,342,2192,512,2162,342 $DEVICE_ID=1001
MM26 3 2 7 nmos  W=2.1e-08 L=1.5e-08 NFIN=2 ADEO=2.835e-16 ASEO=2.835e-16 PDEO=5.85e-08
+	 PSEO=5.85e-08 $X=1310 $Y=512  $PIN_XY=1340,342,1310,512,1280,342 $DEVICE_ID=1001
MM27 6 5 7 nmos  W=2.1e-08 L=1.5e-08 NFIN=2 ADEO=2.835e-16 ASEO=2.835e-16 PDEO=5.85e-08
+	 PSEO=5.85e-08 $X=460 $Y=512  $PIN_XY=490,342,460,512,430,342 $DEVICE_ID=1001
MM28 10 8 21 pmos  W=2.1e-08 L=1.5e-08 NFIN=4 ADEO=5.67e-16 ASEO=1.134e-15 PDEO=1.17e-07
+	 PSEO=2.34e-07 $X=3386 $Y=9350  $PIN_XY=(3416,9548,3416,9378),3386,9350,(3356,9548,3356,9378) $DEVICE_ID=1003
MM29 11 9 23 pmos  W=2.1e-08 L=1.5e-08 NFIN=4 ADEO=5.67e-16 ASEO=1.134e-15 PDEO=1.17e-07
+	 PSEO=2.34e-07 $X=3386 $Y=8202  $PIN_XY=(3416,8400,3416,8230),3386,8202,(3356,8400,3356,8230) $DEVICE_ID=1003
MM30 12 8 25 pmos  W=2.1e-08 L=1.5e-08 NFIN=4 ADEO=5.67e-16 ASEO=1.134e-15 PDEO=1.17e-07
+	 PSEO=2.34e-07 $X=3386 $Y=7052  $PIN_XY=(3416,7250,3416,7080),3386,7052,(3356,7250,3356,7080) $DEVICE_ID=1003
MM31 13 9 27 pmos  W=2.1e-08 L=1.5e-08 NFIN=4 ADEO=5.67e-16 ASEO=1.134e-15 PDEO=1.17e-07
+	 PSEO=2.34e-07 $X=3386 $Y=5904  $PIN_XY=(3416,6102,3416,5932),3386,5904,(3356,6102,3356,5932) $DEVICE_ID=1003
MM32 14 8 29 pmos  W=2.1e-08 L=1.5e-08 NFIN=4 ADEO=5.67e-16 ASEO=1.134e-15 PDEO=1.17e-07
+	 PSEO=2.34e-07 $X=3386 $Y=4756  $PIN_XY=(3416,4954,3416,4784),3386,4756,(3356,4954,3356,4784) $DEVICE_ID=1003
MM33 15 9 31 pmos  W=2.1e-08 L=1.5e-08 NFIN=4 ADEO=5.67e-16 ASEO=1.134e-15 PDEO=1.17e-07
+	 PSEO=2.34e-07 $X=3386 $Y=3608  $PIN_XY=(3416,3806,3416,3636),3386,3608,(3356,3806,3356,3636) $DEVICE_ID=1003
MM34 16 8 33 pmos  W=2.1e-08 L=1.5e-08 NFIN=4 ADEO=5.67e-16 ASEO=1.134e-15 PDEO=1.17e-07
+	 PSEO=2.34e-07 $X=3386 $Y=2460  $PIN_XY=(3416,2658,3416,2488),3386,2460,(3356,2658,3356,2488) $DEVICE_ID=1003
MM35 17 9 35 pmos  W=2.1e-08 L=1.5e-08 NFIN=4 ADEO=5.67e-16 ASEO=1.134e-15 PDEO=1.17e-07
+	 PSEO=2.34e-07 $X=3386 $Y=1312  $PIN_XY=(3416,1510,3416,1340),3386,1312,(3356,1510,3356,1340) $DEVICE_ID=1003
MM36 21 2 20 pmos  W=2.1e-08 L=1.5e-08 NFIN=4 ADEO=1.134e-15 ASEO=1.134e-15 PDEO=2.34e-07
+	 PSEO=2.34e-07 $X=3218 $Y=9450  $PIN_XY=(3248,9548,3248,9378),3218,9450,(3188,9548,3188,9378) $DEVICE_ID=1003
MM37 23 2 22 pmos  W=2.1e-08 L=1.5e-08 NFIN=4 ADEO=1.134e-15 ASEO=1.134e-15 PDEO=2.34e-07
+	 PSEO=2.34e-07 $X=3218 $Y=8302  $PIN_XY=(3248,8400,3248,8230),3218,8302,(3188,8400,3188,8230) $DEVICE_ID=1003
MM38 25 3 24 pmos  W=2.1e-08 L=1.5e-08 NFIN=4 ADEO=1.134e-15 ASEO=1.134e-15 PDEO=2.34e-07
+	 PSEO=2.34e-07 $X=3218 $Y=7152  $PIN_XY=(3248,7250,3248,7080),3218,7152,(3188,7250,3188,7080) $DEVICE_ID=1003
MM39 27 3 26 pmos  W=2.1e-08 L=1.5e-08 NFIN=4 ADEO=1.134e-15 ASEO=1.134e-15 PDEO=2.34e-07
+	 PSEO=2.34e-07 $X=3218 $Y=6004  $PIN_XY=(3248,6102,3248,5932),3218,6004,(3188,6102,3188,5932) $DEVICE_ID=1003
MM40 29 2 28 pmos  W=2.1e-08 L=1.5e-08 NFIN=4 ADEO=1.134e-15 ASEO=1.134e-15 PDEO=2.34e-07
+	 PSEO=2.34e-07 $X=3218 $Y=4856  $PIN_XY=(3248,4954,3248,4784),3218,4856,(3188,4954,3188,4784) $DEVICE_ID=1003
MM41 31 2 30 pmos  W=2.1e-08 L=1.5e-08 NFIN=4 ADEO=1.134e-15 ASEO=1.134e-15 PDEO=2.34e-07
+	 PSEO=2.34e-07 $X=3218 $Y=3708  $PIN_XY=(3248,3806,3248,3636),3218,3708,(3188,3806,3188,3636) $DEVICE_ID=1003
MM42 33 3 32 pmos  W=2.1e-08 L=1.5e-08 NFIN=4 ADEO=1.134e-15 ASEO=1.134e-15 PDEO=2.34e-07
+	 PSEO=2.34e-07 $X=3218 $Y=2560  $PIN_XY=(3248,2658,3248,2488),3218,2560,(3188,2658,3188,2488) $DEVICE_ID=1003
MM43 35 3 34 pmos  W=2.1e-08 L=1.5e-08 NFIN=4 ADEO=1.134e-15 ASEO=1.134e-15 PDEO=2.34e-07
+	 PSEO=2.34e-07 $X=3218 $Y=1412  $PIN_XY=(3248,1510,3248,1340),3218,1412,(3188,1510,3188,1340) $DEVICE_ID=1003
MM44 20 5 4 pmos  W=2.1e-08 L=1.5e-08 NFIN=4 ADEO=1.134e-15 ASEO=5.67e-16 PDEO=2.34e-07
+	 PSEO=1.17e-07 $X=3050 $Y=9350  $PIN_XY=(3080,9548,3080,9378),3050,9350,(3020,9548,3020,9378) $DEVICE_ID=1003
MM45 22 5 4 pmos  W=2.1e-08 L=1.5e-08 NFIN=4 ADEO=1.134e-15 ASEO=5.67e-16 PDEO=2.34e-07
+	 PSEO=1.17e-07 $X=3050 $Y=8202  $PIN_XY=(3080,8400,3080,8230),3050,8202,(3020,8400,3020,8230) $DEVICE_ID=1003
MM46 24 5 4 pmos  W=2.1e-08 L=1.5e-08 NFIN=4 ADEO=1.134e-15 ASEO=5.67e-16 PDEO=2.34e-07
+	 PSEO=1.17e-07 $X=3050 $Y=7052  $PIN_XY=(3080,7250,3080,7080),3050,7052,(3020,7250,3020,7080) $DEVICE_ID=1003
MM47 26 5 4 pmos  W=2.1e-08 L=1.5e-08 NFIN=4 ADEO=1.134e-15 ASEO=5.67e-16 PDEO=2.34e-07
+	 PSEO=1.17e-07 $X=3050 $Y=5904  $PIN_XY=(3080,6102,3080,5932),3050,5904,(3020,6102,3020,5932) $DEVICE_ID=1003
MM48 28 6 4 pmos  W=2.1e-08 L=1.5e-08 NFIN=4 ADEO=1.134e-15 ASEO=5.67e-16 PDEO=2.34e-07
+	 PSEO=1.17e-07 $X=3050 $Y=4756  $PIN_XY=(3080,4954,3080,4784),3050,4756,(3020,4954,3020,4784) $DEVICE_ID=1003
MM49 30 6 4 pmos  W=2.1e-08 L=1.5e-08 NFIN=4 ADEO=1.134e-15 ASEO=5.67e-16 PDEO=2.34e-07
+	 PSEO=1.17e-07 $X=3050 $Y=3608  $PIN_XY=(3080,3806,3080,3636),3050,3608,(3020,3806,3020,3636) $DEVICE_ID=1003
MM50 32 6 4 pmos  W=2.1e-08 L=1.5e-08 NFIN=4 ADEO=1.134e-15 ASEO=5.67e-16 PDEO=2.34e-07
+	 PSEO=1.17e-07 $X=3050 $Y=2460  $PIN_XY=(3080,2658,3080,2488),3050,2460,(3020,2658,3020,2488) $DEVICE_ID=1003
MM51 34 6 4 pmos  W=2.1e-08 L=1.5e-08 NFIN=4 ADEO=1.134e-15 ASEO=5.67e-16 PDEO=2.34e-07
+	 PSEO=1.17e-07 $X=3050 $Y=1312  $PIN_XY=(3080,1510,3080,1340),3050,1312,(3020,1510,3020,1340) $DEVICE_ID=1003
MM52 9 8 4 pmos  W=2.1e-08 L=1.5e-08 NFIN=4 ADEO=5.67e-16 ASEO=5.67e-16 PDEO=1.17e-07
+	 PSEO=1.17e-07 $X=2192 $Y=512  $PIN_XY=(2222,682,2222,512),2192,512,(2162,682,2162,512) $DEVICE_ID=1003
MM53 3 2 4 pmos  W=2.1e-08 L=1.5e-08 NFIN=4 ADEO=5.67e-16 ASEO=5.67e-16 PDEO=1.17e-07
+	 PSEO=1.17e-07 $X=1310 $Y=512  $PIN_XY=(1340,682,1340,512),1310,512,(1280,682,1280,512) $DEVICE_ID=1003
MM54 6 5 4 pmos  W=2.1e-08 L=1.5e-08 NFIN=4 ADEO=5.67e-16 ASEO=5.67e-16 PDEO=1.17e-07
+	 PSEO=1.17e-07 $X=460 $Y=512  $PIN_XY=(490,682,490,512),460,512,(430,682,430,512) $DEVICE_ID=1003
XX880FE34C39 2 5 8 10 7 4 20 21 4 36 nor_5 $T=3238 9162 0 0 $X=2824 $Y=8944
XX880FE34C40 2 5 9 11 7 4 22 23 4 37 nor_5 $T=3238 8014 0 0 $X=2824 $Y=7795
XX880FE34C41 3 5 8 12 7 4 24 25 4 38 nor_5 $T=3238 6864 0 0 $X=2824 $Y=6646
XX880FE34C42 3 5 9 13 7 4 26 27 4 39 nor_5 $T=3238 5716 0 0 $X=2824 $Y=5498
XX880FE34C43 2 6 8 14 7 4 28 29 4 40 nor_5 $T=3238 4568 0 0 $X=2824 $Y=4350
XX880FE34C44 2 6 9 15 7 4 30 31 4 41 nor_5 $T=3238 3420 0 0 $X=2824 $Y=3202
XX880FE34C45 3 6 8 16 7 4 32 33 4 42 nor_5 $T=3238 2272 0 0 $X=2824 $Y=2054
XX880FE34C46 3 6 9 17 7 4 34 35 4 43 nor_5 $T=3238 1124 0 0 $X=2824 $Y=906
XX880FE34C47 8 9 7 4 _GENERATED_44 4 4 inv_2 $T=2192 342 0 0 $X=1970 $Y=134
XX880FE34C48 2 3 7 4 _GENERATED_45 4 4 inv_2 $T=1310 342 0 0 $X=1088 $Y=134
XX880FE34C49 5 6 7 4 _GENERATED_46 4 4 inv_2 $T=460 342 0 0 $X=238 $Y=134
.ends rowdecoder
.subckt demu_2_4 4 5 6 7 8 9 10 15 17
*.floating_nets _GENERATED_89 _GENERATED_90 _GENERATED_91
MM1 13 4 23 nmos  W=2.1e-08 L=1.5e-08 NFIN=4 ADEO=5.67e-16 ASEO=1.134e-15 PDEO=1.17e-07
+	 PSEO=2.34e-07 $X=3476 $Y=382  $PIN_XY=(3506,492,3506,322),3476,382,(3446,492,3446,322) $DEVICE_ID=1001
MM2 23 5 6 nmos  W=2.1e-08 L=1.5e-08 NFIN=4 ADEO=1.134e-15 ASEO=5.67e-16 PDEO=2.34e-07
+	 PSEO=1.17e-07 $X=3308 $Y=577  $PIN_XY=(3338,492,3338,322),3308,577,(3278,492,3278,322) $DEVICE_ID=1001
MM3 12 3 21 nmos  W=2.1e-08 L=1.5e-08 NFIN=4 ADEO=5.67e-16 ASEO=1.134e-15 PDEO=1.17e-07
+	 PSEO=2.34e-07 $X=2468 $Y=382  $PIN_XY=(2498,492,2498,322),2468,382,(2438,492,2438,322) $DEVICE_ID=1001
MM4 21 5 6 nmos  W=2.1e-08 L=1.5e-08 NFIN=4 ADEO=1.134e-15 ASEO=5.67e-16 PDEO=2.34e-07
+	 PSEO=1.17e-07 $X=2300 $Y=577  $PIN_XY=(2330,492,2330,322),2300,577,(2270,492,2270,322) $DEVICE_ID=1001
MM5 11 4 19 nmos  W=2.1e-08 L=1.5e-08 NFIN=4 ADEO=5.67e-16 ASEO=1.134e-15 PDEO=1.17e-07
+	 PSEO=2.34e-07 $X=1460 $Y=382  $PIN_XY=(1490,492,1490,322),1460,382,(1430,492,1430,322) $DEVICE_ID=1001
MM6 19 2 6 nmos  W=2.1e-08 L=1.5e-08 NFIN=4 ADEO=1.134e-15 ASEO=5.67e-16 PDEO=2.34e-07
+	 PSEO=1.17e-07 $X=1292 $Y=577  $PIN_XY=(1322,492,1322,322),1292,577,(1262,492,1262,322) $DEVICE_ID=1001
MM7 6 5 2 nmos  W=2.1e-08 L=1.5e-08 NFIN=2 ADEO=2.835e-16 ASEO=2.835e-16 PDEO=5.85e-08
+	 PSEO=5.85e-08 $X=620 $Y=1294  $PIN_XY=650,1462,620,1294,590,1462 $DEVICE_ID=1001
MM8 14 3 24 nmos  W=2.1e-08 L=1.5e-08 NFIN=4 ADEO=5.67e-16 ASEO=1.134e-15 PDEO=1.17e-07
+	 PSEO=2.34e-07 $X=452 $Y=382  $PIN_XY=(482,492,482,322),452,382,(422,492,422,322) $DEVICE_ID=1001
MM9 6 4 3 nmos  W=2.1e-08 L=1.5e-08 NFIN=2 ADEO=2.835e-16 ASEO=2.835e-16 PDEO=5.85e-08
+	 PSEO=5.85e-08 $X=284 $Y=1294  $PIN_XY=314,1462,284,1294,254,1462 $DEVICE_ID=1001
MM10 24 2 6 nmos  W=2.1e-08 L=1.5e-08 NFIN=4 ADEO=1.134e-15 ASEO=5.67e-16 PDEO=2.34e-07
+	 PSEO=1.17e-07 $X=284 $Y=575  $PIN_XY=(314,492,314,322),284,575,(254,492,254,322) $DEVICE_ID=1001
MM11 9 13 15 pmos  W=2.1e-08 L=1.5e-08 NFIN=4 ADEO=5.67e-16 ASEO=5.67e-16 PDEO=1.17e-07
+	 PSEO=1.17e-07 $X=3980 $Y=664  $PIN_XY=(4010,832,4010,662),3980,664,(3950,832,3950,662) $DEVICE_ID=1003
MM12 13 4 15 pmos  W=2.1e-08 L=1.5e-08 NFIN=4 ADEO=5.67e-16 ASEO=5.67e-16 PDEO=1.17e-07
+	 PSEO=1.17e-07 $X=3644 $Y=765  $PIN_XY=(3674,832,3674,662),3644,765,(3614,832,3614,662) $DEVICE_ID=1003
MM13 13 5 15 pmos  W=2.1e-08 L=1.5e-08 NFIN=4 ADEO=5.67e-16 ASEO=5.67e-16 PDEO=1.17e-07
+	 PSEO=1.17e-07 $X=3308 $Y=577  $PIN_XY=(3338,832,3338,662),3308,577,(3278,832,3278,662) $DEVICE_ID=1003
MM14 8 12 15 pmos  W=2.1e-08 L=1.5e-08 NFIN=4 ADEO=5.67e-16 ASEO=5.67e-16 PDEO=1.17e-07
+	 PSEO=1.17e-07 $X=2972 $Y=664  $PIN_XY=(3002,832,3002,662),2972,664,(2942,832,2942,662) $DEVICE_ID=1003
MM15 12 3 15 pmos  W=2.1e-08 L=1.5e-08 NFIN=4 ADEO=5.67e-16 ASEO=5.67e-16 PDEO=1.17e-07
+	 PSEO=1.17e-07 $X=2636 $Y=765  $PIN_XY=(2666,832,2666,662),2636,765,(2606,832,2606,662) $DEVICE_ID=1003
MM16 12 5 15 pmos  W=2.1e-08 L=1.5e-08 NFIN=4 ADEO=5.67e-16 ASEO=5.67e-16 PDEO=1.17e-07
+	 PSEO=1.17e-07 $X=2300 $Y=577  $PIN_XY=(2330,832,2330,662),2300,577,(2270,832,2270,662) $DEVICE_ID=1003
MM17 7 11 15 pmos  W=2.1e-08 L=1.5e-08 NFIN=4 ADEO=5.67e-16 ASEO=5.67e-16 PDEO=1.17e-07
+	 PSEO=1.17e-07 $X=1964 $Y=664  $PIN_XY=(1994,832,1994,662),1964,664,(1934,832,1934,662) $DEVICE_ID=1003
MM18 11 4 15 pmos  W=2.1e-08 L=1.5e-08 NFIN=4 ADEO=5.67e-16 ASEO=5.67e-16 PDEO=1.17e-07
+	 PSEO=1.17e-07 $X=1628 $Y=765  $PIN_XY=(1658,832,1658,662),1628,765,(1598,832,1598,662) $DEVICE_ID=1003
MM19 11 2 15 pmos  W=2.1e-08 L=1.5e-08 NFIN=4 ADEO=5.67e-16 ASEO=5.67e-16 PDEO=1.17e-07
+	 PSEO=1.17e-07 $X=1292 $Y=577  $PIN_XY=(1322,832,1322,662),1292,577,(1262,832,1262,662) $DEVICE_ID=1003
MM20 10 14 15 pmos  W=2.1e-08 L=1.5e-08 NFIN=4 ADEO=5.67e-16 ASEO=5.67e-16 PDEO=1.17e-07
+	 PSEO=1.17e-07 $X=956 $Y=664  $PIN_XY=(986,832,986,662),956,664,(926,832,926,662) $DEVICE_ID=1003
MM21 15 5 2 pmos  W=2.1e-08 L=1.5e-08 NFIN=4 ADEO=5.67e-16 ASEO=5.67e-16 PDEO=1.17e-07
+	 PSEO=1.17e-07 $X=620 $Y=1294  $PIN_XY=(650,1292,650,1122),620,1294,(590,1292,590,1122) $DEVICE_ID=1003
MM22 14 3 15 pmos  W=2.1e-08 L=1.5e-08 NFIN=4 ADEO=5.67e-16 ASEO=5.67e-16 PDEO=1.17e-07
+	 PSEO=1.17e-07 $X=620 $Y=763  $PIN_XY=(650,832,650,662),620,763,(590,832,590,662) $DEVICE_ID=1003
MM23 15 4 3 pmos  W=2.1e-08 L=1.5e-08 NFIN=4 ADEO=5.67e-16 ASEO=5.67e-16 PDEO=1.17e-07
+	 PSEO=1.17e-07 $X=284 $Y=1294  $PIN_XY=(314,1292,314,1122),284,1294,(254,1292,254,1122) $DEVICE_ID=1003
MM24 14 2 15 pmos  W=2.1e-08 L=1.5e-08 NFIN=4 ADEO=5.67e-16 ASEO=5.67e-16 PDEO=1.17e-07
+	 PSEO=1.17e-07 $X=284 $Y=575  $PIN_XY=(314,832,314,662),284,575,(254,832,254,662) $DEVICE_ID=1003
XX880FE34C50 4 11 2 7 6 15 19 16 17 17 18 and_2 $T=-486 -590 0 0 $X=1070 $Y=113
XX880FE34C51 3 12 5 8 6 15 21 16 17 17 20 and_2 $T=522 -590 0 0 $X=2078 $Y=113
XX880FE34C52 4 13 5 9 6 15 23 16 17 17 22 and_2 $T=1530 -590 0 0 $X=3086 $Y=113
XX880FE34C53 3 14 2 10 6 15 24 16 17 17 6 and_2 $T=-1494 -590 0 0 $X=62 $Y=113
XX880FE34C54 5 2 6 15 16 17 17 inv_2 $T=620 1462 0 180 $X=398 $Y=913
XX880FE34C55 4 3 6 15 16 17 17 inv_2 $T=284 1462 0 180 $X=62 $Y=913
.ends demu_2_4
.subckt VCELLR4 2 3 4 5 6 7 8 9 10 11 12
+	13 14 15 16 17 18 19 20 21 22 23
+	24 25 26 27 28 29 30 31 32 33 34
+	35 36 37 38 39 40 41 42 43 44 45
+	46 47 48 49 50 51 52 53 54 55 56
+	57 58 59 60 61 62 63 64 65 66 67
+	68 69 70 71 72 73 74 75
*.floating_nets _GENERATED_172 _GENERATED_173 _GENERATED_174 _GENERATED_175 _GENERATED_176 _GENERATED_177 _GENERATED_178 _GENERATED_179 _GENERATED_180 _GENERATED_181 _GENERATED_182
*+	_GENERATED_183 _GENERATED_184 _GENERATED_185 _GENERATED_186 _GENERATED_187 _GENERATED_188 _GENERATED_189 _GENERATED_190 _GENERATED_191 _GENERATED_192
XX880FE34C58 11 10 2 26 27 44 43 58 59 74 75 bitcell $T=0 0 0 0 $X=-558 $Y=-410
XX880FE34C59 13 12 3 28 29 46 45 60 61 74 75 bitcell $T=1344 0 0 0 $X=786 $Y=-410
XX880FE34C60 15 14 4 30 31 48 47 62 63 74 75 bitcell $T=2688 0 0 0 $X=2130 $Y=-410
XX880FE34C61 17 16 5 32 33 50 49 64 65 74 75 bitcell $T=4032 0 0 0 $X=3474 $Y=-410
XX880FE34C62 19 18 6 34 35 42 51 66 67 74 75 bitcell $T=5376 0 0 0 $X=4818 $Y=-410
XX880FE34C63 21 20 7 36 37 53 52 68 69 74 75 bitcell $T=6720 0 0 0 $X=6162 $Y=-410
XX880FE34C64 23 22 8 38 39 55 54 70 71 74 75 bitcell $T=8064 0 0 0 $X=7506 $Y=-410
XX880FE34C65 25 24 9 40 41 57 56 72 73 74 75 bitcell $T=9408 0 0 0 $X=8850 $Y=-410
.ends VCELLR4

* Hierarchy Level 1
.subckt column_decoder_new 2 7 8 9 10 11 12 13 14 15 16
+	17 18 19 20 21 22 23 24 25 26 27
+	28 29 30 31 32 33 34 35 36 37 38
+	39 40 41 42 43 44 45 46 47 48 49
+	50
MM1 38 6 47 nmos  W=2.1e-08 L=1.5e-08 NFIN=2 ADEO=2.835e-16 ASEO=2.835e-16 PDEO=5.85e-08
+	 PSEO=5.85e-08 $X=10666 $Y=385  $PIN_XY=10696,380,10666,385,10636,380 $DEVICE_ID=1001
MM2 37 6 46 nmos  W=2.1e-08 L=1.5e-08 NFIN=2 ADEO=2.835e-16 ASEO=2.835e-16 PDEO=5.85e-08
+	 PSEO=5.85e-08 $X=10330 $Y=385  $PIN_XY=10360,380,10330,385,10300,380 $DEVICE_ID=1001
MM3 36 6 45 nmos  W=2.1e-08 L=1.5e-08 NFIN=2 ADEO=2.835e-16 ASEO=2.835e-16 PDEO=5.85e-08
+	 PSEO=5.85e-08 $X=9994 $Y=385  $PIN_XY=10024,380,9994,385,9964,380 $DEVICE_ID=1001
MM4 35 6 44 nmos  W=2.1e-08 L=1.5e-08 NFIN=2 ADEO=2.835e-16 ASEO=2.835e-16 PDEO=5.85e-08
+	 PSEO=5.85e-08 $X=9658 $Y=385  $PIN_XY=9688,380,9658,385,9628,380 $DEVICE_ID=1001
MM5 34 6 43 nmos  W=2.1e-08 L=1.5e-08 NFIN=2 ADEO=2.835e-16 ASEO=2.835e-16 PDEO=5.85e-08
+	 PSEO=5.85e-08 $X=9322 $Y=385  $PIN_XY=9352,380,9322,385,9292,380 $DEVICE_ID=1001
MM6 33 6 42 nmos  W=2.1e-08 L=1.5e-08 NFIN=2 ADEO=2.835e-16 ASEO=2.835e-16 PDEO=5.85e-08
+	 PSEO=5.85e-08 $X=8986 $Y=385  $PIN_XY=9016,380,8986,385,8956,380 $DEVICE_ID=1001
MM7 32 6 41 nmos  W=2.1e-08 L=1.5e-08 NFIN=2 ADEO=2.835e-16 ASEO=2.835e-16 PDEO=5.85e-08
+	 PSEO=5.85e-08 $X=8650 $Y=385  $PIN_XY=8680,380,8650,385,8620,380 $DEVICE_ID=1001
MM8 31 6 39 nmos  W=2.1e-08 L=1.5e-08 NFIN=2 ADEO=2.835e-16 ASEO=2.835e-16 PDEO=5.85e-08
+	 PSEO=5.85e-08 $X=8314 $Y=385  $PIN_XY=8344,380,8314,385,8284,380 $DEVICE_ID=1001
MM9 30 5 47 nmos  W=2.1e-08 L=1.5e-08 NFIN=2 ADEO=2.835e-16 ASEO=2.835e-16 PDEO=5.85e-08
+	 PSEO=5.85e-08 $X=7978 $Y=385  $PIN_XY=8008,380,7978,385,7948,380 $DEVICE_ID=1001
MM10 29 5 46 nmos  W=2.1e-08 L=1.5e-08 NFIN=2 ADEO=2.835e-16 ASEO=2.835e-16 PDEO=5.85e-08
+	 PSEO=5.85e-08 $X=7642 $Y=385  $PIN_XY=7672,380,7642,385,7612,380 $DEVICE_ID=1001
MM11 28 5 45 nmos  W=2.1e-08 L=1.5e-08 NFIN=2 ADEO=2.835e-16 ASEO=2.835e-16 PDEO=5.85e-08
+	 PSEO=5.85e-08 $X=7306 $Y=385  $PIN_XY=7336,380,7306,385,7276,380 $DEVICE_ID=1001
MM12 27 5 44 nmos  W=2.1e-08 L=1.5e-08 NFIN=2 ADEO=2.835e-16 ASEO=2.835e-16 PDEO=5.85e-08
+	 PSEO=5.85e-08 $X=6970 $Y=385  $PIN_XY=7000,380,6970,385,6940,380 $DEVICE_ID=1001
MM13 26 5 43 nmos  W=2.1e-08 L=1.5e-08 NFIN=2 ADEO=2.835e-16 ASEO=2.835e-16 PDEO=5.85e-08
+	 PSEO=5.85e-08 $X=6634 $Y=385  $PIN_XY=6664,380,6634,385,6604,380 $DEVICE_ID=1001
MM14 25 5 42 nmos  W=2.1e-08 L=1.5e-08 NFIN=2 ADEO=2.835e-16 ASEO=2.835e-16 PDEO=5.85e-08
+	 PSEO=5.85e-08 $X=6298 $Y=385  $PIN_XY=6328,380,6298,385,6268,380 $DEVICE_ID=1001
MM15 24 5 41 nmos  W=2.1e-08 L=1.5e-08 NFIN=2 ADEO=2.835e-16 ASEO=2.835e-16 PDEO=5.85e-08
+	 PSEO=5.85e-08 $X=5962 $Y=385  $PIN_XY=5992,380,5962,385,5932,380 $DEVICE_ID=1001
MM16 23 5 39 nmos  W=2.1e-08 L=1.5e-08 NFIN=2 ADEO=2.835e-16 ASEO=2.835e-16 PDEO=5.85e-08
+	 PSEO=5.85e-08 $X=5626 $Y=385  $PIN_XY=5656,380,5626,385,5596,380 $DEVICE_ID=1001
MM17 22 4 47 nmos  W=2.1e-08 L=1.5e-08 NFIN=2 ADEO=2.835e-16 ASEO=2.835e-16 PDEO=5.85e-08
+	 PSEO=5.85e-08 $X=5290 $Y=385  $PIN_XY=5320,380,5290,385,5260,380 $DEVICE_ID=1001
MM18 21 4 46 nmos  W=2.1e-08 L=1.5e-08 NFIN=2 ADEO=2.835e-16 ASEO=2.835e-16 PDEO=5.85e-08
+	 PSEO=5.85e-08 $X=4954 $Y=385  $PIN_XY=4984,380,4954,385,4924,380 $DEVICE_ID=1001
MM19 20 4 45 nmos  W=2.1e-08 L=1.5e-08 NFIN=2 ADEO=2.835e-16 ASEO=2.835e-16 PDEO=5.85e-08
+	 PSEO=5.85e-08 $X=4618 $Y=385  $PIN_XY=4648,380,4618,385,4588,380 $DEVICE_ID=1001
MM20 19 4 44 nmos  W=2.1e-08 L=1.5e-08 NFIN=2 ADEO=2.835e-16 ASEO=2.835e-16 PDEO=5.85e-08
+	 PSEO=5.85e-08 $X=4282 $Y=385  $PIN_XY=4312,380,4282,385,4252,380 $DEVICE_ID=1001
MM21 18 4 43 nmos  W=2.1e-08 L=1.5e-08 NFIN=2 ADEO=2.835e-16 ASEO=2.835e-16 PDEO=5.85e-08
+	 PSEO=5.85e-08 $X=3946 $Y=385  $PIN_XY=3976,380,3946,385,3916,380 $DEVICE_ID=1001
MM22 17 4 42 nmos  W=2.1e-08 L=1.5e-08 NFIN=2 ADEO=2.835e-16 ASEO=2.835e-16 PDEO=5.85e-08
+	 PSEO=5.85e-08 $X=3610 $Y=385  $PIN_XY=3640,380,3610,385,3580,380 $DEVICE_ID=1001
MM23 16 4 41 nmos  W=2.1e-08 L=1.5e-08 NFIN=2 ADEO=2.835e-16 ASEO=2.835e-16 PDEO=5.85e-08
+	 PSEO=5.85e-08 $X=3274 $Y=385  $PIN_XY=3304,380,3274,385,3244,380 $DEVICE_ID=1001
MM24 15 4 39 nmos  W=2.1e-08 L=1.5e-08 NFIN=2 ADEO=2.835e-16 ASEO=2.835e-16 PDEO=5.85e-08
+	 PSEO=5.85e-08 $X=2938 $Y=385  $PIN_XY=2968,380,2938,385,2908,380 $DEVICE_ID=1001
MM25 14 3 47 nmos  W=2.1e-08 L=1.5e-08 NFIN=2 ADEO=2.835e-16 ASEO=2.835e-16 PDEO=5.85e-08
+	 PSEO=5.85e-08 $X=2602 $Y=385  $PIN_XY=2632,380,2602,385,2572,380 $DEVICE_ID=1001
MM26 13 3 46 nmos  W=2.1e-08 L=1.5e-08 NFIN=2 ADEO=2.835e-16 ASEO=2.835e-16 PDEO=5.85e-08
+	 PSEO=5.85e-08 $X=2266 $Y=385  $PIN_XY=2296,380,2266,385,2236,380 $DEVICE_ID=1001
MM27 12 3 45 nmos  W=2.1e-08 L=1.5e-08 NFIN=2 ADEO=2.835e-16 ASEO=2.835e-16 PDEO=5.85e-08
+	 PSEO=5.85e-08 $X=1930 $Y=385  $PIN_XY=1960,380,1930,385,1900,380 $DEVICE_ID=1001
MM28 11 3 44 nmos  W=2.1e-08 L=1.5e-08 NFIN=2 ADEO=2.835e-16 ASEO=2.835e-16 PDEO=5.85e-08
+	 PSEO=5.85e-08 $X=1594 $Y=385  $PIN_XY=1624,380,1594,385,1564,380 $DEVICE_ID=1001
MM29 10 3 43 nmos  W=2.1e-08 L=1.5e-08 NFIN=2 ADEO=2.835e-16 ASEO=2.835e-16 PDEO=5.85e-08
+	 PSEO=5.85e-08 $X=1258 $Y=385  $PIN_XY=1288,380,1258,385,1228,380 $DEVICE_ID=1001
MM30 9 3 42 nmos  W=2.1e-08 L=1.5e-08 NFIN=2 ADEO=2.835e-16 ASEO=2.835e-16 PDEO=5.85e-08
+	 PSEO=5.85e-08 $X=922 $Y=385  $PIN_XY=952,380,922,385,892,380 $DEVICE_ID=1001
MM31 8 3 41 nmos  W=2.1e-08 L=1.5e-08 NFIN=2 ADEO=2.835e-16 ASEO=2.835e-16 PDEO=5.85e-08
+	 PSEO=5.85e-08 $X=586 $Y=385  $PIN_XY=616,380,586,385,556,380 $DEVICE_ID=1001
MM32 40 3 39 nmos  W=2.1e-08 L=1.5e-08 NFIN=2 ADEO=2.835e-16 ASEO=2.835e-16 PDEO=5.85e-08
+	 PSEO=5.85e-08 $X=250 $Y=385  $PIN_XY=280,380,250,385,220,380 $DEVICE_ID=1001
XX880FE34C35 2 7 49 4 5 6 3 48 50 demu_2_4 $T=-6216 -556 0 0 $X=-6342 $Y=-442
.ends column_decoder_new
.subckt VCELLR2 2 3 4 5 6 7 8 9 10 11 12
+	13 14
XX880FE34C56 2 3 4 8 9 12 13 14 bit_conditioning $T=0 0 0 0 $X=2106 $Y=1348
XX880FE34C57 5 6 7 10 11 12 13 14 bit_conditioning $T=1008 0 0 0 $X=3114 $Y=1348
.ends VCELLR2

* Hierarchy Level 0

* Top of hierarchy  cell=bit_cell_array
.subckt bit_cell_array 2 3 4 5 6 7 8 9 VDD! GND! 12
+	13 CLK 15 16 17 18 19 20 21 22 23
+	24 25 26 27 28 29 30 31 32 33 34
+	35 36 37 38 39 40 41 42 43 44 WENB
+	D<0> D<1> D<3> D<2> A<4> A<3> A<2> 53 54 55 56
+	57 58 59 60 A<0> A<1> Q<3> Q<1> Q<0> Q<2>
*.floating_nets 595 596 597 598 599 600 601 602 603 604 605
*+	606 607 608 609 610 611 612 613 614 615 616
*+	617 618 619 620 621 622 623 624 625 626 627
*+	628 629 630 631 632 633 634 635 636 637 638
*+	639 640 641 642 643 644 645 646 647 648 649
*+	650 651 652 653 654 655 656 657 658 659 660
*+	661 662 663 664 665 666 667 668 669 670 671
*+	672 673 674 675 676 677 678 679 680 681 682
*+	683 684 685 686 687 688 689 690 691 692 693
*+	694 695 696 697 698 699 700 701 702 703 704
*+	705 706 707 708 709 710 711 712 713 714 715
*+	716 717 718 719 720 721 722 723 724 725 726
*+	727 728 729 730 731 732 733 734 735 736 737
*+	738 739 740 741 742 743 744 745 746 747 748
*+	749 750 751 752 753 754 755 756 757 758 759
*+	760 761 762 763 764 765 766 767 768 769 770
*+	771 772 773 774 775 776 777 778 779 780 781
*+	782 783 784 785 786 787 788 789 790 791 792
*+	793 794 795 796 797 798 799 800 801 802 803
*+	804 805 806 807 808 809 810 811 812 813 814
*+	815 816 817 818 819 820 821 822 823 824 825
*+	826 827 828 829 830 831 832 833 834 835 836
*+	837 838 839 840 841 842 843 844 845 846 847
*+	848 849 850 851 852 853 854 855 856 857 858
*+	859 860 861 862 863 864 865 866 867 868 869
*+	870 871 872 873 874 875 876 877 878 879 880
*+	881 882 883 884 885 886 887 888 889 890 891
*+	892 893 894 895 896 897 898 899 900 901 902
*+	903 904 905 906 907 908 909 910 911 912 913
*+	914 915 916 917 918 919 920 921 922 923 924
*+	925 926 927 928 929 930 931 932 933 934 935
*+	936 937 938 939 940 941 942 943 944 945 946
*+	947 948 949 950 951 952 953 954 955 956 957
*+	958 959 960 961 962 963 964 965 966 967 968
*+	969 970 971 972 973 974 975 976 977 978 979
*+	980 981 982 983 984 985 986 987 988 989 990
*+	991 992 993 994 995 996 997 998 999 1000 1001
*+	1002 1003 1004 1005 1006 1007 1008 1009 1010 1011 1012
*+	1013 1014 1015 1016 1017 1018 1019 1020 1021 1022 1023
*+	1024 1025 1026 1027 1028 1029 1030 1031 1032 1033 1034
*+	1035 1036 1037 1038 1039 1040 1041 1042 1043 1044 1045
*+	1046 1047 1048 1049 1050 1051 1052 1053 1054 1055 1056
*+	1057 1058 1059 1060 1061 1062 1063 1064 1065 1066 1067
*+	1068 1069 1070 1071 1072 1073 1074 1075 1076 1077 1078
*+	1079 1080 1081 1082 1083 1084 1085 1086 1087 1088 1089
*+	1090 1091 1092 1093 1094 1095 1096 1097 1098 1099 1100
*+	1101 1102 1103 1104 1105 1106 1107 1108 1109 1110 1111
*+	1112 1113 1114 1115 1116 1117 1118 1119 1120 1121 1122
*+	1123 1124 1125 1126 1127 1128 1129 1130 1131 1132 1133
*+	1134 1135 1136 1137 1138 1139 1140 1141 1142 1143 1144
*+	1145 1146 1147 1148 1149 1150 1151 1152 1153 1154 1155
*+	1156 1157 1158 1159 1160 1161 1162 1163 1164 1165 1166