.tran 0.1p 25n start=0
.measure tran Qtot INTEG 'i(vdd)' FROM='0' TO='21*clkperiod'
.measure tran Etot PARAM='-Qtot*vdd'